REMARK  Name = 
REMARK  20 active torsions:
REMARK  status: ('A' for Active; 'I' for Inactive)
REMARK    1  A    between atoms: C_2  and  C_3
REMARK    2  A    between atoms: C_3  and  N_4
REMARK    3  A    between atoms: C_5  and  C_6
REMARK    4  A    between atoms: C_6  and  N_7
REMARK    5  A    between atoms: C_6  and  C_12
REMARK    6  A    between atoms: C_8  and  C_16
REMARK    7  A    between atoms: C_12  and  C_13
REMARK    8  A    between atoms: C_13  and  C_14
REMARK    9  A    between atoms: C_14  and  N_15
REMARK   10  A    between atoms: C_21  and  C_22
REMARK   11  A    between atoms: C_25  and  C_32
REMARK   12  A    between atoms: C_32  and  C_33
REMARK   13  A    between atoms: C_37  and  C_39
REMARK   14  A    between atoms: C_39  and  C_40
REMARK   15  A    between atoms: C_40  and  C_41
REMARK   16  A    between atoms: C_45  and  C_47
REMARK   17  A    between atoms: C_47  and  C_48
REMARK   18  A    between atoms: C_60  and  C_63
REMARK   19  A    between atoms: C_63  and  C_65
REMARK   20  A    between atoms: C_67  and  O_71
REMARK                            x       y       z     vdW  Elec       q    Type
REMARK                         _______ _______ _______ _____ _____    ______ ____
ROOT
ATOM      1  C   UNL     1       0.315  -1.798   0.000  0.00  0.00    +0.000 C 
ATOM      2  N   UNL     1       1.034  -2.202   0.000  0.00  0.00    +0.000 N 
ATOM      3  C   UNL     1       1.708  -1.798   0.000  0.00  0.00    +0.000 C 
ATOM      4  C   UNL     1       2.427  -2.202   0.000  0.00  0.00    +0.000 C 
ATOM      5  N   UNL     1       3.146  -1.798   0.000  0.00  0.00    +0.000 N 
ATOM      6  C   UNL     1       0.315  -0.989   0.000  0.00  0.00    +0.000 C 
ATOM      7  S   UNL     1      -0.404  -0.584   0.000  0.00  0.00    +0.000 S 
ATOM      8  S   UNL     1      -0.404   0.225   0.000  0.00  0.00    +0.000 S 
ATOM      9  O   UNL     1       1.708  -0.989   0.000  0.00  0.00    +0.000 OA
ATOM     10  C   UNL     1       3.146  -0.989   0.000  0.00  0.00    +0.000 C 
ATOM     11  C   UNL     1       3.865  -0.584   0.000  0.00  0.00    +0.000 C 
ATOM     12  O   UNL     1       2.427  -0.584   0.000  0.00  0.00    +0.000 OA
ATOM     13  N   UNL     1       3.865   0.225   0.000  0.00  0.00    +0.000 N 
ATOM     14  C   UNL     1       3.146   1.483   0.000  0.00  0.00    +0.000 C 
ATOM     15  C   UNL     1       3.146   0.629   0.000  0.00  0.00    +0.000 C 
ATOM     16  N   UNL     1       0.315   1.483   0.000  0.00  0.00    +0.000 N 
ATOM     17  C   UNL     1      -0.404   1.887   0.000  0.00  0.00    +0.000 C 
ATOM     18  C   UNL     1      -1.123   1.483   0.000  0.00  0.00    +0.000 C 
ATOM     19  C   UNL     1      -1.123   0.629   0.000  0.00  0.00    +0.000 C 
ATOM     20  C   UNL     1       1.708   1.483   0.000  0.00  0.00    +0.000 C 
ATOM     21  O   UNL     1       1.708   0.629   0.000  0.00  0.00    +0.000 OA
ATOM     22  C   UNL     1       1.034   1.887   0.000  0.00  0.00    +0.000 C 
ATOM     23  N   UNL     1       2.427   1.887   0.000  0.00  0.00    +0.000 N 
ATOM     24  O   UNL     1       2.427   0.225   0.000  0.00  0.00    +0.000 OA
ATOM     25  O   UNL     1      -0.404   2.696   0.000  0.00  0.00    +0.000 OA
ATOM     26  H   UNL     1       1.048  -3.187   0.000  0.00  0.00    +0.000 HD
ATOM     27  H   UNL     1       3.996  -2.295   0.000  0.00  0.00    +0.000 HD
ATOM     28  H   UNL     1       4.715   0.722   0.000  0.00  0.00    +0.000 HD
ATOM     29  H   UNL     1       0.315   0.499   0.000  0.00  0.00    +0.000 HD
ATOM     30  H   UNL     1       2.427   2.872   0.000  0.00  0.00    +0.000 HD
ENDROOT
BRANCH   1  36
ATOM     31  C   UNL     1      -1.798  -2.292   0.000  0.00  0.00    +0.000 C 
ATOM     32  C   UNL     1      -2.427  -1.798   0.000  0.00  0.00    +0.000 C 
ATOM     33  N   UNL     1      -1.123  -1.798   0.000  0.00  0.00    +0.000 N 
ATOM     34  C   UNL     1      -2.202  -1.034   0.000  0.00  0.00    +0.000 C 
ATOM     35  C   UNL     1      -1.393  -1.034   0.000  0.00  0.00    +0.000 C 
ATOM     36  C   UNL     1      -0.404  -2.202   0.000  0.00  0.00    +0.000 C 
ATOM     37  O   UNL     1      -0.404  -3.056   0.000  0.00  0.00    +0.000 OA
BRANCH  31  39
ATOM     38  N   UNL     1      -2.472  -3.505   0.000  0.00  0.00    +0.000 N 
ATOM     39  C   UNL     1      -1.798  -3.101   0.000  0.00  0.00    +0.000 C 
ATOM     40  O   UNL     1      -1.079  -3.505   0.000  0.00  0.00    +0.000 OA
ATOM     41  H   UNL     1      -2.458  -4.490   0.000  0.00  0.00    +0.000 HD
BRANCH  38  42
ATOM     42  C   UNL     1      -3.191  -3.101   0.000  0.00  0.00    +0.000 C 
BRANCH  42  44
ATOM     43  N   UNL     1      -4.629  -3.101   0.000  0.00  0.00    +0.000 N 
ATOM     44  C   UNL     1      -3.910  -3.505   0.000  0.00  0.00    +0.000 C 
ATOM     45  O   UNL     1      -3.910  -4.359   0.000  0.00  0.00    +0.000 OA
ATOM     46  H   UNL     1      -4.629  -2.117   0.000  0.00  0.00    +0.000 HD
BRANCH  43  47
ATOM     47  C   UNL     1      -5.348  -3.505   0.000  0.00  0.00    +0.000 C 
BRANCH  47  49
ATOM     48  N   UNL     1      -6.741  -3.505   0.000  0.00  0.00    +0.000 N 
ATOM     49  C   UNL     1      -6.067  -3.101   0.000  0.00  0.00    +0.000 C 
ATOM     50  O   UNL     1      -6.067  -2.292   0.000  0.00  0.00    +0.000 OA
ATOM     51  H   UNL     1      -7.602  -3.027   0.000  0.00  0.00    +0.000 HD
ATOM     52  H   UNL     1      -6.725  -4.490   0.000  0.00  0.00    +0.000 HD
ENDBRANCH  47  49
ENDBRANCH  43  47
ENDBRANCH  42  44
BRANCH  42  53
ATOM     53  C   UNL     1      -3.191  -2.292   0.000  0.00  0.00    +0.000 C 
BRANCH  53  54
ATOM     54  C   UNL     1      -3.910  -1.887   0.000  0.00  0.00    +0.000 C 
BRANCH  54  55
ATOM     55  C   UNL     1      -3.910  -1.079   0.000  0.00  0.00    +0.000 C 
BRANCH  55  56
ATOM     56  N   UNL     1      -4.629  -0.674   0.000  0.00  0.00    +0.000 N 
ATOM     57  C   UNL     1      -5.348  -1.079   0.000  0.00  0.00    +0.000 C 
ATOM     58  N   UNL     1      -5.348  -1.887   0.000  0.00  0.00    +0.000 NA
ATOM     59  N   UNL     1      -6.067  -0.674   0.000  0.00  0.00    +0.000 N 
ATOM     60  H   UNL     1      -4.629   0.310   0.000  0.00  0.00    +0.000 HD
ATOM     61  H   UNL     1      -6.201  -2.380   0.000  0.00  0.00    +0.000 HD
ATOM     62  H   UNL     1      -6.078   0.310   0.000  0.00  0.00    +0.000 HD
ATOM     63  H   UNL     1      -6.914  -1.176   0.000  0.00  0.00    +0.000 HD
ENDBRANCH  55  56
ENDBRANCH  54  55
ENDBRANCH  53  54
ENDBRANCH  42  53
ENDBRANCH  38  42
ENDBRANCH  31  39
ENDBRANCH   1  36
BRANCH   4  64
ATOM     64  C   UNL     1       2.427  -3.056   0.000  0.00  0.00    +0.000 C 
BRANCH  64  65
ATOM     65  C   UNL     1       3.146  -3.461   0.000  0.00  0.00    +0.000 C 
ATOM     66  O   UNL     1       3.146  -4.269   0.000  0.00  0.00    +0.000 OA
ATOM     67  N   UNL     1       3.865  -3.056   0.000  0.00  0.00    +0.000 N 
ATOM     68  H   UNL     1       4.712  -3.558   0.000  0.00  0.00    +0.000 HD
ATOM     69  H   UNL     1       3.876  -2.072   0.000  0.00  0.00    +0.000 HD
ENDBRANCH  64  65
ENDBRANCH   4  64
BRANCH  11  70
ATOM     70  C   UNL     1       4.584  -0.989   0.000  0.00  0.00    +0.000 C 
BRANCH  70  71
ATOM     71  C   UNL     1       5.303  -0.584   0.000  0.00  0.00    +0.000 C 
BRANCH  71  72
ATOM     72  C   UNL     1       6.022  -0.989   0.000  0.00  0.00    +0.000 C 
ATOM     73  N   UNL     1       6.741  -0.584   0.000  0.00  0.00    +0.000 N 
ATOM     74  O   UNL     1       6.022  -1.843   0.000  0.00  0.00    +0.000 OA
ATOM     75  H   UNL     1       7.588  -1.086   0.000  0.00  0.00    +0.000 HD
ATOM     76  H   UNL     1       6.752   0.400   0.000  0.00  0.00    +0.000 HD
ENDBRANCH  71  72
ENDBRANCH  70  71
ENDBRANCH  11  70
BRANCH  14  77
ATOM     77  C   UNL     1       3.865   1.887   0.000  0.00  0.00    +0.000 C 
BRANCH  77  78
ATOM     78  C   UNL     1       4.584   1.483   0.000  0.00  0.00    +0.000 A 
ATOM     79  C   UNL     1       4.584   0.629   0.000  0.00  0.00    +0.000 A 
ATOM     80  C   UNL     1       6.022   1.483   0.000  0.00  0.00    +0.000 A 
ATOM     81  C   UNL     1       6.022   0.629   0.000  0.00  0.00    +0.000 A 
ATOM     82  C   UNL     1       5.303   1.887   0.000  0.00  0.00    +0.000 A 
ATOM     83  C   UNL     1       5.303   0.225   0.000  0.00  0.00    +0.000 A 
ENDBRANCH  77  78
ENDBRANCH  14  77
BRANCH  22  84
ATOM     84  C   UNL     1       1.034   2.696   0.000  0.00  0.00    +0.000 C 
BRANCH  84  86
ATOM     85  C   UNL     1       2.427   2.696   0.000  0.00  0.00    +0.000 A 
ATOM     86  C   UNL     1       1.708   3.101   0.000  0.00  0.00    +0.000 A 
ATOM     87  C   UNL     1       3.146   3.101   0.000  0.00  0.00    +0.000 A 
ATOM     88  C   UNL     1       3.146   3.955   0.000  0.00  0.00    +0.000 A 
ATOM     89  C   UNL     1       1.708   3.955   0.000  0.00  0.00    +0.000 A 
ATOM     90  C   UNL     1       2.427   4.359   0.000  0.00  0.00    +0.000 A 
BRANCH  88  91
ATOM     91  O   UNL     1       3.865   4.359   0.000  0.00  0.00    +0.000 OA
ATOM     92  H   UNL     1       4.671   3.882   0.000  0.00  0.00    +0.000 HD
ENDBRANCH  88  91
ENDBRANCH  84  86
ENDBRANCH  22  84
TORSDOF 20
