REMARK  Name = 
REMARK  18 active torsions:
REMARK  status: ('A' for Active; 'I' for Inactive)
REMARK    1  A    between atoms: C_1  and  C_2
REMARK    2  A    between atoms: C_1  and  C_8
REMARK    3  A    between atoms: C_1  and  N_9
REMARK    4  A    between atoms: C_6  and  C_11
REMARK    5  A    between atoms: N_7  and  C_11
REMARK    6  A    between atoms: C_11  and  C_22
REMARK    7  A    between atoms: N_12  and  C_13
REMARK    8  A    between atoms: C_13  and  C_14
REMARK    9  A    between atoms: C_13  and  C_20
REMARK   10  A    between atoms: C_14  and  O_28
REMARK   11  A    between atoms: N_15  and  CA_23
REMARK   12  A    between atoms: C_20  and  C_30
REMARK   13  A    between atoms: C_22  and  C_32
REMARK   14  A    between atoms: CA_23  and  C_26
REMARK   15  A    between atoms: CA_23  and  CB_29
REMARK   16  A    between atoms: CB_29  and  CG_31
REMARK   17  A    between atoms: C_32  and  C_37
REMARK   18  A    between atoms: C_32  and  C_38
REMARK                            x       y       z     vdW  Elec       q    Type
REMARK                         _______ _______ _______ _____ _____    ______ ____
ROOT
ATOM      1  C   UNK A   1      -0.712   0.200   0.000  0.00  0.00    +0.000 C 
ENDROOT
BRANCH   1   4
ATOM      2  C   UNK A   1       0.000   2.250   0.000  0.00  0.00    +0.000 C 
ATOM      3  N   UNK A   1       0.000   1.429   0.000  0.00  0.00    +0.000 N 
ATOM      4  C   UNK A   1      -0.712   1.025   0.000  0.00  0.00    +0.000 C 
ATOM      5  N   UNK A   1       0.712   2.667   0.000  0.00  0.00    +0.000 NA
ATOM      6  N   UNK A   1      -0.712   2.667   0.000  0.00  0.00    +0.000 N 
ATOM      7  C   UNK A   1      -1.429   1.429   0.000  0.00  0.00    +0.000 C 
ATOM      8  C   UNK A   1      -1.425   2.262   0.000  0.00  0.00    +0.000 C 
ATOM      9  H   UNK A   1       0.851   0.934   0.000  0.00  0.00    +0.000 HD
ATOM     10  H   UNK A   1       1.568   2.179   0.000  0.00  0.00    +0.000 HD
ATOM     11  H   UNK A   1      -0.706   3.651   0.000  0.00  0.00    +0.000 HD
ENDBRANCH   1   4
BRANCH   1  13
ATOM     12  C   UNK A   0      -2.142   0.200   0.000  0.00  0.00    +0.000 C 
ATOM     13  N   UNK A   1      -1.429  -0.212   0.000  0.00  0.00    +0.000 N 
ATOM     14  N   UNK A   1      -2.862  -0.212   0.000  0.00  0.00    +0.000 N 
ATOM     15  O   UNK A   0      -2.142   1.025   0.000  0.00  0.00    +0.000 OA
ATOM     16  H   UNK A   1      -1.430  -1.197   0.000  0.00  0.00    +0.000 HD
ATOM     17  H   UNK A   1      -2.865  -1.197   0.000  0.00  0.00    +0.000 HD
BRANCH  14  18
ATOM     18  C   UNK A   1      -3.575   0.200   0.000  0.00  0.00    +0.000 C 
BRANCH  18  19
ATOM     19  C   UNK A   1      -4.287  -0.212   0.000  0.00  0.00    +0.000 C 
ATOM     20  O   UNK A   1      -4.287  -1.038   0.000  0.00  0.00    +0.000 OA
BRANCH  19  21
ATOM     21  O   UNK A   1      -5.000   0.200   0.000  0.00  0.00    +0.000 OA
ATOM     22  H   UNK A   1      -4.999   1.137   0.000  0.00  0.00    +0.000 HD
ENDBRANCH  19  21
ENDBRANCH  18  19
BRANCH  18  23
ATOM     23  C   UNK A   1      -3.575   1.025   0.000  0.00  0.00    +0.000 C 
BRANCH  23  24
ATOM     24  C   UNK A   1      -4.287   1.437   0.000  0.00  0.00    +0.000 A 
ATOM     25  C   UNK A   1      -4.287   2.262   0.000  0.00  0.00    +0.000 A 
ATOM     26  C   UNK A   1      -5.000   1.025   0.000  0.00  0.00    +0.000 A 
ATOM     27  C   UNK A   1      -5.713   1.437   0.000  0.00  0.00    +0.000 A 
ATOM     28  C   UNK A   1      -5.000   2.675   0.000  0.00  0.00    +0.000 A 
ATOM     29  C   UNK A   1      -5.713   2.262   0.000  0.00  0.00    +0.000 A 
ENDBRANCH  23  24
ENDBRANCH  18  23
ENDBRANCH  14  18
ENDBRANCH   1  13
BRANCH   1  30
ATOM     30  C   UNK A   1       0.000  -0.212   0.000  0.00  0.00    +0.000 C 
ATOM     31  N   UNK A   1       0.712   0.200   0.000  0.00  0.00    +0.000 N 
ATOM     32  O   UNK A   1       0.000  -1.038   0.000  0.00  0.00    +0.000 OA
ATOM     33  H   UNK A   1       0.712   1.184   0.000  0.00  0.00    +0.000 HD
BRANCH  31  34
ATOM     34  C   UNK A   1       1.425  -0.212   0.000  0.00  0.00    +0.000 C 
BRANCH  34  35
ATOM     35  C   UNK A   1       2.146   0.200   0.000  0.00  0.00    +0.000 C 
ATOM     36  N   PHE A   2       2.858  -0.212   0.000  0.00  0.00    +0.000 N 
ATOM     37  O   UNK A   1       2.146   1.025   0.000  0.00  0.00    +0.000 OA
ATOM     38  H   PHE A   2       2.857  -1.197   0.000  0.00  0.00    +0.000 HD
BRANCH  36  39
ATOM     39  CA  PHE A   2       3.575   0.200   0.000  0.00  0.00    +0.000 C 
BRANCH  39  41
ATOM     40  O   PHE A   2       4.287  -1.038   0.000  0.00  0.00    +0.000 OA
ATOM     41  C   PHE A   2       4.287  -0.212   0.000  0.00  0.00    +0.000 C 
ENDBRANCH  39  41
BRANCH  39  42
ATOM     42  CB  PHE A   2       3.575   1.025   0.000  0.00  0.00    +0.000 C 
BRANCH  42  43
ATOM     43  CG  PHE A   2       4.287   1.437   0.000  0.00  0.00    +0.000 A 
ATOM     44  CD1 PHE A   2       4.287   2.262   0.000  0.00  0.00    +0.000 A 
ATOM     45  CD2 PHE A   2       5.000   1.025   0.000  0.00  0.00    +0.000 A 
ATOM     46  CE2 PHE A   2       5.713   1.437   0.000  0.00  0.00    +0.000 A 
ATOM     47  CE1 PHE A   2       4.996   2.675   0.000  0.00  0.00    +0.000 A 
ATOM     48  CZ  PHE A   2       5.713   2.262   0.000  0.00  0.00    +0.000 A 
ENDBRANCH  42  43
ENDBRANCH  39  42
ENDBRANCH  36  39
ENDBRANCH  34  35
BRANCH  34  49
ATOM     49  C   UNK A   1       1.425  -1.038   0.000  0.00  0.00    +0.000 C 
BRANCH  49  50
ATOM     50  C   UNK A   1       2.125  -1.733   0.000  0.00  0.00    +0.000 C 
ATOM     51  C   UNK A   1       1.871  -2.675   0.000  0.00  0.00    +0.000 C 
ATOM     52  C   UNK A   1       3.062  -1.475   0.000  0.00  0.00    +0.000 C 
ENDBRANCH  49  50
ENDBRANCH  34  49
ENDBRANCH  31  34
ENDBRANCH   1  30
TORSDOF 16
