REMARK  Name = 445561
REMARK  16 active torsions:
REMARK  status: ('A' for Active; 'I' for Inactive)
REMARK    1  A    between atoms: P_1  and  O_7
REMARK    2  A    between atoms: P_1  and  O_8
REMARK    3  A    between atoms: P_1  and  C_41
REMARK    4  A    between atoms: P_2  and  O_9
REMARK    5  A    between atoms: P_2  and  O_10
REMARK    6  A    between atoms: P_2  and  C_43
REMARK    7  A    between atoms: O_3  and  C_22
REMARK    8  A    between atoms: O_3  and  C_30
REMARK    9  A    between atoms: N_13  and  C_23
REMARK   10  A    between atoms: N_14  and  C_35
REMARK   11  A    between atoms: C_16  and  C_22
REMARK   12  A    between atoms: C_33  and  C_37
REMARK   13  A    between atoms: C_34  and  C_35
REMARK   14  A    between atoms: C_35  and  C_36
REMARK   15  A    between atoms: C_36  and  C_38
REMARK   16  A    between atoms: C_42  and  C_45
REMARK                            x       y       z     vdW  Elec       q    Type
REMARK                         _______ _______ _______ _____ _____    ______ ____
ROOT
ATOM      1  O   UNL     1       4.396   2.154   1.671  0.00  0.00    +0.000 OA
ATOM      2  N   UNL     1       2.748   1.561   0.144  0.00  0.00    +0.000 N 
ATOM      3  C   UNL     1       3.896   1.341   0.897  0.00  0.00    +0.000 C 
ATOM      4  H   UNL     1       2.424   0.819  -0.467  0.00  0.00    +0.000 HD
ENDROOT
BRANCH   2   5
ATOM      5  C   UNL     1       1.996   2.794   0.184  0.00  0.00    +0.000 C 
ATOM      6  C   UNL     1       2.597   3.885  -0.714  0.00  0.00    +0.000 C 
ATOM      7  C   UNL     1       0.517   2.560  -0.047  0.00  0.00    +0.000 A 
ATOM      8  C   UNL     1       2.841   3.501  -2.173  0.00  0.00    +0.000 C 
ATOM      9  C   UNL     1      -0.015   2.165  -1.290  0.00  0.00    +0.000 A 
ATOM     10  C   UNL     1       1.579   3.194  -2.972  0.00  0.00    +0.000 C 
ATOM     11  C   UNL     1       0.849   1.938  -2.506  0.00  0.00    +0.000 C 
ATOM     12  C   UNL     1      -2.254   2.141  -0.321  0.00  0.00    +0.000 A 
ATOM     13  C   UNL     1      -1.402   1.958  -1.408  0.00  0.00    +0.000 A 
ATOM     14  C   UNL     1      -0.360   2.735   1.041  0.00  0.00    +0.000 A 
ATOM     15  C   UNL     1      -1.732   2.529   0.906  0.00  0.00    +0.000 A 
BRANCH  15  18
ATOM     16  O   UNL     1      -3.122   3.826   2.297  0.00  0.00    +0.000 OA
ATOM     17  N   UNL     1      -2.835   1.627   2.883  0.00  0.00    +0.000 N 
ATOM     18  C   UNL     1      -2.598   2.724   2.061  0.00  0.00    +0.000 C 
ATOM     19  H   UNL     1      -2.423   0.718   2.699  0.00  0.00    +0.000 HD
ATOM     20  H   UNL     1      -3.435   1.705   3.697  0.00  0.00    +0.000 HD
ENDBRANCH  15  18
BRANCH  12  21
ATOM     21  O   UNL     1      -3.591   1.931  -0.480  0.00  0.00    +0.000 OA
BRANCH  21  22
ATOM     22  C   UNL     1      -3.998   0.626  -0.886  0.00  0.00    +0.000 C 
BRANCH  22  23
ATOM     23  C   UNL     1      -5.381   0.333  -0.306  0.00  0.00    +0.000 C 
ATOM     24  C   UNL     1      -5.827  -1.091  -0.661  0.00  0.00    +0.000 C 
ATOM     25  C   UNL     1      -6.404   1.365  -0.799  0.00  0.00    +0.000 C 
ATOM     26  C   UNL     1      -7.230  -1.390  -0.138  0.00  0.00    +0.000 C 
ATOM     27  C   UNL     1      -7.806   1.063  -0.276  0.00  0.00    +0.000 C 
ATOM     28  C   UNL     1      -8.243  -0.357  -0.623  0.00  0.00    +0.000 C 
ENDBRANCH  22  23
ENDBRANCH  21  22
ENDBRANCH  12  21
ENDBRANCH   2   5
BRANCH   3  29
ATOM     29  C   UNL     1       4.513  -0.025   0.614  0.00  0.00    +0.000 C 
BRANCH  29  31
ATOM     30  O   UNL     1       6.254   0.773  -1.567  0.00  0.00    +0.000 OA
ATOM     31  N   UNL     1       5.944   0.139   0.651  0.00  0.00    +0.000 N 
ATOM     32  C   UNL     1       6.695   0.525  -0.448  0.00  0.00    +0.000 C 
ATOM     33  C   UNL     1       8.161   0.644  -0.128  0.00  0.00    +0.000 C 
ATOM     34  H   UNL     1       6.410   0.033   1.548  0.00  0.00    +0.000 HD
ENDBRANCH  29  31
BRANCH  29  35
ATOM     35  C   UNL     1       4.021  -1.054   1.637  0.00  0.00    +0.000 C 
BRANCH  35  36
ATOM     36  C   UNL     1       2.657  -1.606   1.301  0.00  0.00    +0.000 A 
ATOM     37  C   UNL     1       2.542  -2.745   0.504  0.00  0.00    +0.000 A 
ATOM     38  C   UNL     1       1.511  -0.977   1.787  0.00  0.00    +0.000 A 
ATOM     39  C   UNL     1       1.282  -3.256   0.194  0.00  0.00    +0.000 A 
ATOM     40  C   UNL     1       0.136  -2.627   0.680  0.00  0.00    +0.000 A 
ATOM     41  C   UNL     1       0.250  -1.488   1.477  0.00  0.00    +0.000 A 
BRANCH  39  42
ATOM     42  P   UNL     1       1.163  -4.698  -0.822  0.00  0.00    +0.000 P 
ATOM     43  O   UNL     1       0.492  -5.908  -0.240  0.00  0.00    +0.000 OA
BRANCH  42  44
ATOM     44  O   UNL     1       2.680  -4.994  -1.312  0.00  0.00    +0.000 OA
ATOM     45  H   UNL     1       2.853  -5.787  -1.861  0.00  0.00    +0.000 HD
ENDBRANCH  42  44
BRANCH  42  46
ATOM     46  O   UNL     1       0.467  -4.191  -2.195  0.00  0.00    +0.000 OA
ATOM     47  H   UNL     1       0.265  -4.849  -2.893  0.00  0.00    +0.000 HD
ENDBRANCH  42  46
ENDBRANCH  39  42
BRANCH  40  48
ATOM     48  P   UNL     1      -1.473  -3.253   0.298  0.00  0.00    +0.000 P 
ATOM     49  O   UNL     1      -1.868  -3.329  -1.147  0.00  0.00    +0.000 OA
BRANCH  48  50
ATOM     50  O   UNL     1      -2.494  -2.358   1.184  0.00  0.00    +0.000 OA
ATOM     51  H   UNL     1      -3.457  -2.520   1.104  0.00  0.00    +0.000 HD
ENDBRANCH  48  50
BRANCH  48  52
ATOM     52  O   UNL     1      -1.556  -4.686   1.050  0.00  0.00    +0.000 OA
ATOM     53  H   UNL     1      -2.362  -5.234   0.935  0.00  0.00    +0.000 HD
ENDBRANCH  48  52
ENDBRANCH  40  48
ENDBRANCH  35  36
ENDBRANCH  29  35
ENDBRANCH   3  29
TORSDOF 15
