REMARK  Name = 
REMARK  25 active torsions:
REMARK  status: ('A' for Active; 'I' for Inactive)
REMARK    1  A    between atoms: NE_4  and  CD_5
REMARK    2  A    between atoms: CD_5  and  CG_6
REMARK    3  A    between atoms: CG_6  and  CB_7
REMARK    4  A    between atoms: CB_7  and  CA_8
REMARK    5  A    between atoms: CA_8  and  N_9
REMARK    6  A    between atoms: CA_8  and  C_33
REMARK    7  A    between atoms: C_10  and  C_12
REMARK    8  A    between atoms: C_12  and  C_14
REMARK    9  A    between atoms: C_14  and  C_15
REMARK   10  A    between atoms: C_14  and  N_22
REMARK   11  A    between atoms: C_15  and  C_16
REMARK   12  A    between atoms: C_23  and  O_25
REMARK   13  A    between atoms: O_25  and  C_26
REMARK   14  A    between atoms: C_26  and  C_27
REMARK   15  A    between atoms: N_35  and  CA_36
REMARK   16  A    between atoms: CA_36  and  CB_37
REMARK   17  A    between atoms: CA_36  and  C_42
REMARK   18  A    between atoms: CB_37  and  CG_38
REMARK   19  A    between atoms: CG_38  and  CD_39
REMARK   20  A    between atoms: CD_39  and  OE2_41
REMARK   21  A    between atoms: N_44  and  CA_45
REMARK   22  A    between atoms: CA_45  and  CB_46
REMARK   23  A    between atoms: CA_45  and  C_53
REMARK   24  A    between atoms: CB_46  and  CG_47
REMARK   25  A    between atoms: C_53  and  OXT_55
REMARK                            x       y       z     vdW  Elec       q    Type
REMARK                         _______ _______ _______ _____ _____    ______ ____
ROOT
ATOM      1  CA  ARG A   1      -0.607  -0.511  -2.251  0.00  0.00    +0.000 C 
ENDROOT
BRANCH   1   2
ATOM      2  N   ARG A   1       0.460  -0.409  -1.101  0.00  0.00    +0.000 N 
ATOM      3  C   UNK A   0       1.552   0.457  -1.324  0.00  0.00    +0.000 C 
ATOM      4  O   UNK A   0       1.296   1.500  -1.996  0.00  0.00    +0.000 OA
ATOM      5  H   ARG A   1       0.371  -0.924  -0.267  0.00  0.00    +0.000 HD
BRANCH   3   6
ATOM      6  C   UNK A   0       2.889   0.228  -0.729  0.00  0.00    +0.000 C 
ATOM      7  O   UNK A   0       2.951  -0.841  -0.126  0.00  0.00    +0.000 OA
BRANCH   6   8
ATOM      8  C   UNK A   0       3.268   1.598   0.039  0.00  0.00    +0.000 C 
BRANCH   8   9
ATOM      9  N   UNK A   0       4.725   1.726  -0.533  0.00  0.00    +0.000 N 
ATOM     10  C   UNK A   0       5.036   1.308  -1.804  0.00  0.00    +0.000 C 
ATOM     11  O   UNK A   0       4.437   0.299  -2.239  0.00  0.00    +0.000 OA
ATOM     12  H   UNK A   0       5.431   2.114   0.032  0.00  0.00    +0.000 HD
BRANCH  10  13
ATOM     13  O   UNK A   0       6.382   1.356  -2.189  0.00  0.00    +0.000 OA
BRANCH  13  14
ATOM     14  C   UNK A   0       7.072   0.212  -2.692  0.00  0.00    +0.000 C 
BRANCH  14  15
ATOM     15  C   UNK A   0       7.849  -0.459  -1.603  0.00  0.00    +0.000 A 
ATOM     16  C   UNK A   0       7.694  -0.104  -0.268  0.00  0.00    +0.000 A 
ATOM     17  C   UNK A   0       8.774  -0.071   0.606  0.00  0.00    +0.000 A 
ATOM     18  C   UNK A   0      10.060  -0.314   0.139  0.00  0.00    +0.000 A 
ATOM     19  C   UNK A   0      10.130  -1.018  -1.057  0.00  0.00    +0.000 A 
ATOM     20  C   UNK A   0       9.020  -1.155  -1.883  0.00  0.00    +0.000 A 
ENDBRANCH  14  15
ENDBRANCH  13  14
ENDBRANCH  10  13
ENDBRANCH   8   9
BRANCH   8  21
ATOM     21  C   UNK A   0       3.769   0.881   1.439  0.00  0.00    +0.000 C 
BRANCH  21  22
ATOM     22  C   UNK A   0       5.018   0.185   1.234  0.00  0.00    +0.000 C 
ATOM     23  C   UNK A   0       6.181   1.070   1.646  0.00  0.00    +0.000 C 
ATOM     24  C   UNK A   0       7.401   0.181   1.842  0.00  0.00    +0.000 C 
ATOM     25  C   UNK A   0       7.439  -0.870   0.756  0.00  0.00    +0.000 C 
ATOM     26  C   UNK A   0       6.283  -1.844   0.956  0.00  0.00    +0.000 C 
ATOM     27  C   UNK A   0       5.232  -1.157   1.826  0.00  0.00    +0.000 C 
ENDBRANCH  21  22
ENDBRANCH   8  21
ENDBRANCH   6   8
ENDBRANCH   3   6
ENDBRANCH   1   2
BRANCH   1  28
ATOM     28  C   ARG A   1      -1.826  -0.414  -1.195  0.00  0.00    +0.000 C 
ATOM     29  O   ARG A   1      -2.838  -1.075  -1.475  0.00  0.00    +0.000 OA
ATOM     30  N   GLU A   2      -1.915   0.914  -0.722  0.00  0.00    +0.000 N 
ATOM     31  H   GLU A   2      -1.385   1.670  -1.064  0.00  0.00    +0.000 HD
BRANCH  30  32
ATOM     32  CA  GLU A   2      -2.985   1.012   0.431  0.00  0.00    +0.000 C 
BRANCH  32  33
ATOM     33  C   GLU A   2      -4.230   0.803  -0.572  0.00  0.00    +0.000 C 
ATOM     34  O   GLU A   2      -4.231   1.441  -1.624  0.00  0.00    +0.000 OA
ATOM     35  N   PHE A   3      -5.435   0.383   0.089  0.00  0.00    +0.000 N 
ATOM     36  H   PHE A   3      -5.476  -0.057   0.969  0.00  0.00    +0.000 HD
BRANCH  35  37
ATOM     37  CA  PHE A   3      -6.685   0.732  -0.814  0.00  0.00    +0.000 C 
BRANCH  37  38
ATOM     38  C   PHE A   3      -7.742   0.853   0.396  0.00  0.00    +0.000 C 
ATOM     39  O   PHE A   3      -7.368   0.940   1.548  0.00  0.00    +0.000 OA
BRANCH  38  40
ATOM     40  OXT PHE A   3      -8.759   1.737   0.016  0.00  0.00    +0.000 OA
ATOM     41  HXT PHE A   3      -9.091   1.721  -0.859  0.00  0.00    +0.000 HD
ENDBRANCH  38  40
ENDBRANCH  37  38
BRANCH  37  42
ATOM     42  CB  PHE A   3      -6.994  -0.859  -1.094  0.00  0.00    +0.000 C 
BRANCH  42  43
ATOM     43  CG  PHE A   3      -7.428  -1.516   0.131  0.00  0.00    +0.000 C 
ATOM     44  CD1 PHE A   3      -6.486  -2.482   0.776  0.00  0.00    +0.000 C 
ATOM     45  CE1 PHE A   3      -7.312  -3.450   1.611  0.00  0.00    +0.000 C 
ATOM     46  CZ  PHE A   3      -8.518  -2.795   2.224  0.00  0.00    +0.000 C 
ATOM     47  CE2 PHE A   3      -9.524  -2.409   1.146  0.00  0.00    +0.000 C 
ATOM     48  CD2 PHE A   3      -8.736  -2.226  -0.130  0.00  0.00    +0.000 C 
ENDBRANCH  42  43
ENDBRANCH  37  42
ENDBRANCH  35  37
ENDBRANCH  32  33
BRANCH  32  49
ATOM     49  CB  GLU A   2      -3.047   2.652   0.318  0.00  0.00    +0.000 C 
BRANCH  49  50
ATOM     50  CG  GLU A   2      -4.420   2.914   0.859  0.00  0.00    +0.000 C 
BRANCH  50  51
ATOM     51  CD  GLU A   2      -4.807   4.318   0.630  0.00  0.00    +0.000 C 
ATOM     52  OE1 GLU A   2      -5.258   4.685  -0.492  0.00  0.00    +0.000 OA
BRANCH  51  53
ATOM     53  OE2 GLU A   2      -5.294   5.021   1.736  0.00  0.00    +0.000 OA
ATOM     54  HE2 GLU A   2      -5.000   4.800   2.598  0.00  0.00    +0.000 HD
ENDBRANCH  51  53
ENDBRANCH  50  51
ENDBRANCH  49  50
ENDBRANCH  32  49
ENDBRANCH  30  32
ENDBRANCH   1  28
BRANCH   1  55
ATOM     55  CB  ARG A   1      -0.555  -2.156  -2.197  0.00  0.00    +0.000 C 
BRANCH  55  56
ATOM     56  CG  ARG A   1      -0.771  -2.586  -0.899  0.00  0.00    +0.000 C 
BRANCH  56  57
ATOM     57  CD  ARG A   1      -0.351  -2.876   0.312  0.00  0.00    +0.000 C 
BRANCH  57  61
ATOM     58  NH1 ARG A   1      -1.100  -1.336   2.350  0.00  0.00    +0.000 NA
ATOM     59  CZ  ARG A   1      -0.424  -1.475   2.417  0.00  0.00    +0.000 C 
ATOM     60  NH2 ARG A   1       0.517  -0.731   3.210  0.00  0.00    +0.000 N 
ATOM     61  NE  ARG A   1       0.211  -2.268   1.399  0.00  0.00    +0.000 N 
ATOM     62  HH1 ARG A   1      -1.561  -0.795   3.032  0.00  0.00    +0.000 HD
ATOM     63 HH21 ARG A   1       0.197  -0.151   3.939  0.00  0.00    +0.000 HD
ATOM     64 HH22 ARG A   1       1.481  -0.801   3.025  0.00  0.00    +0.000 HD
ATOM     65  HE  ARG A   1       1.183  -2.391   1.499  0.00  0.00    +0.000 HD
ENDBRANCH  57  61
ENDBRANCH  56  57
ENDBRANCH  55  56
ENDBRANCH   1  55
TORSDOF 25
