REMARK  Name = 
REMARK  29 active torsions:
REMARK  status: ('A' for Active; 'I' for Inactive)
REMARK    1  A    between atoms: O_3  and  C_44
REMARK    2  A    between atoms: O_4  and  C_46
REMARK    3  A    between atoms: O_8  and  C_51
REMARK    4  A    between atoms: O_11  and  C_56
REMARK    5  A    between atoms: O_14  and  C_58
REMARK    6  A    between atoms: N_16  and  C_26
REMARK    7  A    between atoms: N_17  and  C_25
REMARK    8  A    between atoms: N_18  and  C_31
REMARK    9  A    between atoms: N_19  and  C_39
REMARK   10  A    between atoms: C_24  and  C_25
REMARK   11  A    between atoms: C_24  and  C_28
REMARK   12  A    between atoms: C_25  and  C_44
REMARK   13  A    between atoms: C_26  and  C_27
REMARK   14  A    between atoms: C_26  and  C_46
REMARK   15  A    between atoms: C_27  and  C_30
REMARK   16  A    between atoms: C_28  and  C_36
REMARK   17  A    between atoms: C_29  and  C_31
REMARK   18  A    between atoms: C_29  and  C_32
REMARK   19  A    between atoms: C_30  and  C_41
REMARK   20  A    between atoms: C_31  and  C_51
REMARK   21  A    between atoms: C_32  and  C_37
REMARK   22  A    between atoms: C_33  and  C_34
REMARK   23  A    between atoms: C_33  and  C_35
REMARK   24  A    between atoms: C_35  and  C_40
REMARK   25  A    between atoms: C_39  and  C_43
REMARK   26  A    between atoms: C_39  and  C_56
REMARK   27  A    between atoms: C_43  and  C_52
REMARK   28  A    between atoms: C_47  and  C_48
REMARK   29  A    between atoms: C_52  and  C_58
REMARK                            x       y       z     vdW  Elec       q    Type
REMARK                         _______ _______ _______ _____ _____    ______ ____
ROOT
ATOM      1  O   UNK A   1       1.871   2.602   0.000  0.00  0.00    +0.000 OA
ATOM      2  N   UNK A   1       2.934   3.556   0.000  0.00  0.00    +0.000 N 
ATOM      3  C   UNK A   1       2.678   2.772   0.000  0.00  0.00    +0.000 C 
ATOM      4  H   UNK A   1       3.898   3.759   0.000  0.00  0.00    +0.000 HD
ENDROOT
BRANCH   2   5
ATOM      5  C   UNK A   1       2.383   4.170   0.000  0.00  0.00    +0.000 C 
BRANCH   5   7
ATOM      6  O   UNK A   1       3.447   5.125   0.000  0.00  0.00    +0.000 OA
ATOM      7  C   UNK A   1       2.640   4.954   0.000  0.00  0.00    +0.000 C 
BRANCH   7   8
ATOM      8  O   UNK A   1       2.089   5.568   0.000  0.00  0.00    +0.000 OA
ATOM      9  H   UNK A   1       2.380   6.459   0.000  0.00  0.00    +0.000 HD
ENDBRANCH   7   8
ENDBRANCH   5   7
BRANCH   5  10
ATOM     10  C   UNK A   1       1.576   4.000   0.000  0.00  0.00    +0.000 C 
BRANCH  10  11
ATOM     11  C   UNK A   1       1.025   4.614   0.000  0.00  0.00    +0.000 C 
BRANCH  11  14
ATOM     12  O   UNK A   1      -0.038   3.660   0.000  0.00  0.00    +0.000 OA
ATOM     13  N   UNK A   1      -0.333   5.058   0.000  0.00  0.00    +0.000 N 
ATOM     14  C   UNK A   1       0.218   4.444   0.000  0.00  0.00    +0.000 C 
ATOM     15  H   UNK A   1      -0.027   5.994   0.000  0.00  0.00    +0.000 HD
BRANCH  13  16
ATOM     16  C   UNK A   1      -1.140   4.888   0.000  0.00  0.00    +0.000 C 
BRANCH  16  18
ATOM     17  O   UNK A   1      -1.435   6.286   0.000  0.00  0.00    +0.000 OA
ATOM     18  C   UNK A   1      -1.691   5.502   0.000  0.00  0.00    +0.000 C 
BRANCH  18  19
ATOM     19  O   UNK A   1      -2.498   5.332   0.000  0.00  0.00    +0.000 OA
ATOM     20  H   UNK A   1      -3.124   6.029   0.000  0.00  0.00    +0.000 HD
ENDBRANCH  18  19
ENDBRANCH  16  18
BRANCH  16  21
ATOM     21  C   UNK A   1      -1.397   4.104   0.000  0.00  0.00    +0.000 C 
BRANCH  21  22
ATOM     22  C   UNK A   1      -2.204   3.933   0.000  0.00  0.00    +0.000 C 
BRANCH  22  25
ATOM     23  O   UNK A   1      -1.909   2.535   0.000  0.00  0.00    +0.000 OA
ATOM     24  N   UNK A   1      -3.267   2.979   0.000  0.00  0.00    +0.000 N 
ATOM     25  C   UNK A   1      -2.460   3.149   0.000  0.00  0.00    +0.000 C 
ATOM     26  H   UNK A   1      -3.925   3.712   0.000  0.00  0.00    +0.000 HD
BRANCH  24  27
ATOM     27  C   UNK A   1      -3.524   2.195   0.000  0.00  0.00    +0.000 C 
BRANCH  27  29
ATOM     28  O   UNK A   1      -4.882   2.639   0.000  0.00  0.00    +0.000 OA
ATOM     29  C   UNK A   1      -4.331   2.025   0.000  0.00  0.00    +0.000 C 
BRANCH  29  30
ATOM     30  O   UNK A   1      -4.587   1.241   0.000  0.00  0.00    +0.000 OA
ATOM     31  H   UNK A   1      -5.504   1.047   0.000  0.00  0.00    +0.000 HD
ENDBRANCH  29  30
ENDBRANCH  27  29
BRANCH  27  32
ATOM     32  C   UNK A   1      -2.973   1.581   0.000  0.00  0.00    +0.000 C 
BRANCH  32  33
ATOM     33  C   UNK A   1      -3.229   0.797   0.000  0.00  0.00    +0.000 C 
BRANCH  33  35
ATOM     34  O   UNK A   1      -1.871   0.353   0.000  0.00  0.00    +0.000 OA
ATOM     35  C   UNK A   1      -2.678   0.183   0.000  0.00  0.00    +0.000 C 
BRANCH  35  36
ATOM     36  O   UNK A   1      -2.934  -0.601   0.000  0.00  0.00    +0.000 OA
ATOM     37  H   UNK A   1      -3.851  -0.795   0.000  0.00  0.00    +0.000 HD
ENDBRANCH  35  36
ENDBRANCH  33  35
ENDBRANCH  32  33
ENDBRANCH  27  32
ENDBRANCH  24  27
ENDBRANCH  22  25
ENDBRANCH  21  22
ENDBRANCH  16  21
ENDBRANCH  13  16
ENDBRANCH  11  14
ENDBRANCH  10  11
ENDBRANCH   5  10
ENDBRANCH   2   5
BRANCH   3  38
ATOM     38  C   UNK A   1       3.229   2.158   0.000  0.00  0.00    +0.000 C 
BRANCH  38  39
ATOM     39  C   UNK A   1       2.973   1.374   0.000  0.00  0.00    +0.000 C 
BRANCH  39  40
ATOM     40  C   UNK A   1       3.524   0.760   0.000  0.00  0.00    +0.000 C 
BRANCH  40  42
ATOM     41  O   UNK A   0       1.909   0.419   0.000  0.00  0.00    +0.000 OA
ATOM     42  N   UNK A   1       3.267  -0.025   0.000  0.00  0.00    +0.000 N 
ATOM     43  C   UNK A   0       2.460  -0.195   0.000  0.00  0.00    +0.000 C 
ATOM     44  H   UNK A   1       3.925  -0.757   0.000  0.00  0.00    +0.000 HD
BRANCH  43  46
ATOM     45  C   UNK A   0       1.691  -2.547   0.000  0.00  0.00    +0.000 A 
ATOM     46  C   UNK A   0       2.204  -0.979   0.000  0.00  0.00    +0.000 A 
ATOM     47  C   UNK A   0       2.498  -2.377   0.000  0.00  0.00    +0.000 A 
ATOM     48  C   UNK A   0       1.140  -1.933   0.000  0.00  0.00    +0.000 A 
ATOM     49  C   UNK A   0       2.755  -1.593   0.000  0.00  0.00    +0.000 A 
ATOM     50  C   UNK A   0       1.397  -1.149   0.000  0.00  0.00    +0.000 A 
BRANCH  45  51
ATOM     51  C   UNK A   0       1.435  -3.331   0.000  0.00  0.00    +0.000 C 
BRANCH  51  52
ATOM     52  C   UNK A   0       0.628  -3.501   0.000  0.00  0.00    +0.000 C 
BRANCH  52  58
ATOM     53  O   UNK A   0      -1.124  -3.300   0.000  0.00  0.00    +0.000 OA
ATOM     54  N   UNK A   0       0.371  -5.614   0.000  0.00  0.00    +0.000 N 
ATOM     55  N   UNK A   0      -1.124  -5.775   0.000  0.00  0.00    +0.000 N 
ATOM     56  N   UNK A   0      -1.838  -4.537   0.000  0.00  0.00    +0.000 NA
ATOM     57  N   UNK A   0      -2.553  -5.775   0.000  0.00  0.00    +0.000 N 
ATOM     58  C   UNK A   0       0.371  -4.286   0.000  0.00  0.00    +0.000 A 
ATOM     59  C   UNK A   0      -0.409  -4.537   0.000  0.00  0.00    +0.000 A 
ATOM     60  C   UNK A   0      -0.409  -5.362   0.000  0.00  0.00    +0.000 A 
ATOM     61  C   UNK A   0       0.853  -4.950   0.000  0.00  0.00    +0.000 A 
ATOM     62  C   UNK A   0      -1.124  -4.125   0.000  0.00  0.00    +0.000 A 
ATOM     63  C   UNK A   0      -1.838  -5.362   0.000  0.00  0.00    +0.000 A 
ATOM     64  H   UNK A   0       0.677  -6.549   0.000  0.00  0.00    +0.000 HD
ATOM     65  H   UNK A   0      -1.124  -6.759   0.000  0.00  0.00    +0.000 HD
ATOM     66  H   UNK A   0      -3.405  -5.282   0.000  0.00  0.00    +0.000 HD
ATOM     67  H   UNK A   0      -2.553  -6.759   0.000  0.00  0.00    +0.000 HD
ENDBRANCH  52  58
ENDBRANCH  51  52
ENDBRANCH  45  51
ENDBRANCH  43  46
ENDBRANCH  40  42
BRANCH  40  69
ATOM     68  O   UNK A   1       4.882   0.316   0.000  0.00  0.00    +0.000 OA
ATOM     69  C   UNK A   1       4.331   0.930   0.000  0.00  0.00    +0.000 C 
BRANCH  69  70
ATOM     70  O   UNK A   1       4.587   1.714   0.000  0.00  0.00    +0.000 OA
ATOM     71  H   UNK A   1       5.504   1.907   0.000  0.00  0.00    +0.000 HD
ENDBRANCH  69  70
ENDBRANCH  40  69
ENDBRANCH  39  40
ENDBRANCH  38  39
ENDBRANCH   3  38
TORSDOF 29
