REMARK  Name = 448836
REMARK  15 active torsions:
REMARK  status: ('A' for Active; 'I' for Inactive)
REMARK    1  A    between atoms: O_2  and  C_17
REMARK    2  A    between atoms: O_5  and  C_31
REMARK    3  A    between atoms: N_7  and  C_10
REMARK    4  A    between atoms: N_7  and  CA_11
REMARK    5  A    between atoms: N_8  and  C_18
REMARK    6  A    between atoms: C_10  and  C_13
REMARK    7  A    between atoms: C_10  and  C_15
REMARK    8  A    between atoms: CA_11  and  C_12
REMARK    9  A    between atoms: CA_11  and  C_17
REMARK   10  A    between atoms: C_12  and  C_14
REMARK   11  A    between atoms: C_13  and  C_16
REMARK   12  A    between atoms: C_14  and  C_19
REMARK   13  A    between atoms: C_18  and  C_20
REMARK   14  A    between atoms: C_18  and  C_25
REMARK   15  A    between atoms: C_20  and  C_31
REMARK                            x       y       z     vdW  Elec       q    Type
REMARK                         _______ _______ _______ _____ _____    ______ ____
ROOT
ATOM      1  C   UNL     1      -1.124   1.159  -0.472  0.00  0.00    +0.000 C 
ENDROOT
BRANCH   1   4
ATOM      2  O   UNL     1      -1.159  -0.591  -2.147  0.00  0.00    +0.000 OA
ATOM      3  N   UNL     1      -1.589  -1.160   0.059  0.00  0.00    +0.000 N 
ATOM      4  C   UNL     1      -1.279  -0.276  -0.964  0.00  0.00    +0.000 C 
ATOM      5  H   UNL     1      -1.744  -0.804   0.998  0.00  0.00    +0.000 HD
BRANCH   3   6
ATOM      6  C   UNL     1      -1.805  -2.567  -0.180  0.00  0.00    +0.000 C 
BRANCH   6   9
ATOM      7  O   UNL     1      -4.184  -2.091  -0.074  0.00  0.00    +0.000 OA
ATOM      8  N   UNL     1      -3.466  -3.787  -1.446  0.00  0.00    +0.000 N 
ATOM      9  C   UNL     1      -3.269  -2.756  -0.552  0.00  0.00    +0.000 C 
ATOM     10  H   UNL     1      -4.398  -4.027  -1.767  0.00  0.00    +0.000 HD
ATOM     11  H   UNL     1      -2.701  -4.343  -1.816  0.00  0.00    +0.000 HD
ENDBRANCH   6   9
BRANCH   6  12
ATOM     12  C   UNL     1      -1.446  -3.410   1.044  0.00  0.00    +0.000 C 
BRANCH  12  14
ATOM     13  O   UNL     1       0.900  -3.242   0.401  0.00  0.00    +0.000 OA
ATOM     14  C   UNL     1       0.041  -3.671   1.159  0.00  0.00    +0.000 C 
BRANCH  14  15
ATOM     15  O   UNL     1       0.324  -4.463   2.226  0.00  0.00    +0.000 OA
ATOM     16  H   UNL     1       1.286  -4.638   2.306  0.00  0.00    +0.000 HD
ENDBRANCH  14  15
ENDBRANCH  12  14
ENDBRANCH   6  12
ENDBRANCH   3   6
ENDBRANCH   1   4
BRANCH   1  17
ATOM     17  N   UNL     1       0.252   1.560  -0.767  0.00  0.00    +0.000 NA
ATOM     18  H   UNL     1       0.512   1.250  -1.702  0.00  0.00    +0.000 HD
BRANCH  17  19
ATOM     19  CA  UNL     1       1.164   1.044   0.241  0.00  0.00    +0.000 C 
BRANCH  19  21
ATOM     20  OXT UNL     1       0.864   3.175   1.380  0.00  0.00    +0.000 OA
ATOM     21  C   UNL     1       1.067   1.968   1.442  0.00  0.00    +0.000 C 
BRANCH  21  22
ATOM     22  O   UNL     1       1.204   1.307   2.619  0.00  0.00    +0.000 OA
ATOM     23  H   UNL     1       1.129   1.911   3.389  0.00  0.00    +0.000 HD
ENDBRANCH  21  22
ENDBRANCH  19  21
BRANCH  19  24
ATOM     24  C   UNL     1       2.590   1.025  -0.329  0.00  0.00    +0.000 C 
BRANCH  24  25
ATOM     25  C   UNL     1       3.654   0.477   0.634  0.00  0.00    +0.000 C 
BRANCH  25  26
ATOM     26  C   UNL     1       5.042   0.387   0.048  0.00  0.00    +0.000 A 
ATOM     27  C   UNL     1       5.449  -0.777  -0.604  0.00  0.00    +0.000 A 
ATOM     28  C   UNL     1       5.917   1.468   0.158  0.00  0.00    +0.000 A 
ATOM     29  C   UNL     1       6.732  -0.860  -1.146  0.00  0.00    +0.000 A 
ATOM     30  C   UNL     1       7.199   1.385  -0.384  0.00  0.00    +0.000 A 
ATOM     31  C   UNL     1       7.607   0.221  -1.036  0.00  0.00    +0.000 A 
ENDBRANCH  25  26
ENDBRANCH  24  25
ENDBRANCH  19  24
ENDBRANCH  17  19
ENDBRANCH   1  17
BRANCH   1  32
ATOM     32  C   UNL     1      -2.107   2.092  -1.196  0.00  0.00    +0.000 C 
BRANCH  32  33
ATOM     33  C   UNL     1      -3.488   2.077  -0.584  0.00  0.00    +0.000 A 
ATOM     34  C   UNL     1      -4.442   1.166  -1.036  0.00  0.00    +0.000 A 
ATOM     35  C   UNL     1      -3.809   2.976   0.434  0.00  0.00    +0.000 A 
ATOM     36  C   UNL     1      -5.717   1.152  -0.471  0.00  0.00    +0.000 A 
ATOM     37  C   UNL     1      -5.084   2.962   1.000  0.00  0.00    +0.000 A 
ATOM     38  C   UNL     1      -6.038   2.050   0.547  0.00  0.00    +0.000 A 
ENDBRANCH  32  33
ENDBRANCH   1  32
TORSDOF 15
