REMARK  Name = 
REMARK  19 active torsions:
REMARK  status: ('A' for Active; 'I' for Inactive)
REMARK    1  A    between atoms: C_1  and  C_2
REMARK    2  A    between atoms: C_2  and  C_3
REMARK    3  A    between atoms: C_2  and  C_4
REMARK    4  A    between atoms: C_4  and  C_5
REMARK    5  A    between atoms: C_5  and  N_6
REMARK    6  A    between atoms: C_5  and  C_17
REMARK    7  A    between atoms: C_7  and  O_9
REMARK    8  A    between atoms: O_9  and  C_10
REMARK    9  A    between atoms: C_10  and  C_11
REMARK   10  A    between atoms: N_19  and  C_20
REMARK   11  A    between atoms: C_23  and  C_25
REMARK   12  A    between atoms: C_25  and  C_26
REMARK   13  A    between atoms: C_25  and  N_30
REMARK   14  A    between atoms: C_26  and  C_27
REMARK   15  A    between atoms: C_27  and  C_28
REMARK   16  A    between atoms: C_27  and  C_29
REMARK   17  A    between atoms: C_31  and  O_33
REMARK   18  A    between atoms: O_33  and  C_34
REMARK   19  A    between atoms: C_34  and  C_35
REMARK                            x       y       z     vdW  Elec       q    Type
REMARK                         _______ _______ _______ _____ _____    ______ ____
ROOT
ATOM      1  C   UNL     1      -0.709  -0.496  -0.332  0.00  0.00    +0.000 C 
ATOM      2  C   UNL     1       0.228  -0.706  -1.661  0.00  0.00    +0.000 C 
ATOM      3  N   UNL     1       1.333  -1.468  -1.184  0.00  0.00    +0.000 N 
ATOM      4  C   UNL     1       2.638  -1.029  -0.763  0.00  0.00    +0.000 C 
ATOM      5  O   UNL     1       3.317  -1.959  -0.261  0.00  0.00    +0.000 OA
ATOM      6  C   UNL     1       0.634  -2.448  -0.336  0.00  0.00    +0.000 C 
ATOM      7  C   UNL     1       0.241  -1.375   0.643  0.00  0.00    +0.000 C 
ATOM      8  O   UNL     1      -0.273  -1.637   1.718  0.00  0.00    +0.000 OA
ENDROOT
BRANCH   1  11
ATOM      9  C   UNL     1      -2.933  -1.284  -0.437  0.00  0.00    +0.000 C 
ATOM     10  O   UNL     1      -3.243  -1.167  -1.608  0.00  0.00    +0.000 OA
ATOM     11  N   UNL     1      -1.587  -1.775  -0.610  0.00  0.00    +0.000 N 
ATOM     12  H   UNL     1      -1.290  -2.684  -0.844  0.00  0.00    +0.000 HD
BRANCH   9  13
ATOM     13  C   UNL     1      -3.785  -2.150   0.619  0.00  0.00    +0.000 C 
BRANCH  13  14
ATOM     14  N   UNL     1      -4.235  -0.916   1.483  0.00  0.00    +0.000 N 
ATOM     15  C   UNL     1      -4.543   0.288   0.912  0.00  0.00    +0.000 C 
ATOM     16  O   UNL     1      -5.052   0.293  -0.213  0.00  0.00    +0.000 OA
ATOM     17  H   UNL     1      -4.297  -1.013   2.461  0.00  0.00    +0.000 HD
BRANCH  15  18
ATOM     18  O   UNL     1      -4.616   1.463   1.666  0.00  0.00    +0.000 OA
BRANCH  18  19
ATOM     19  C   UNL     1      -5.293   2.594   1.115  0.00  0.00    +0.000 C 
BRANCH  19  20
ATOM     20  C   UNL     1      -6.664   2.166   0.753  0.00  0.00    +0.000 A 
ATOM     21  C   UNL     1      -7.312   1.333   1.649  0.00  0.00    +0.000 A 
ATOM     22  C   UNL     1      -8.365   0.508   1.271  0.00  0.00    +0.000 A 
ATOM     23  C   UNL     1      -8.666   0.477  -0.084  0.00  0.00    +0.000 A 
ATOM     24  C   UNL     1      -8.287   1.567  -0.859  0.00  0.00    +0.000 A 
ATOM     25  C   UNL     1      -7.265   2.420  -0.455  0.00  0.00    +0.000 A 
ENDBRANCH  19  20
ENDBRANCH  18  19
ENDBRANCH  15  18
ENDBRANCH  13  14
BRANCH  13  26
ATOM     26  C   UNL     1      -5.169  -2.160  -0.270  0.00  0.00    +0.000 C 
BRANCH  26  28
ATOM     27  C   UNL     1      -3.942  -4.375  -0.386  0.00  0.00    +0.000 C 
ATOM     28  C   UNL     1      -5.111  -3.536  -0.869  0.00  0.00    +0.000 C 
ATOM     29  C   UNL     1      -6.332  -4.366  -0.589  0.00  0.00    +0.000 C 
ENDBRANCH  26  28
ENDBRANCH  13  26
ENDBRANCH   9  13
ENDBRANCH   1  11
BRANCH   4  30
ATOM     30  C   UNL     1       2.631   0.373   0.035  0.00  0.00    +0.000 C 
BRANCH  30  31
ATOM     31  N   UNL     1       4.100   0.245   0.583  0.00  0.00    +0.000 N 
ATOM     32  C   UNL     1       5.114  -0.208  -0.255  0.00  0.00    +0.000 C 
ATOM     33  O   UNL     1       5.003   0.054  -1.489  0.00  0.00    +0.000 OA
ATOM     34  H   UNL     1       4.301   0.484   1.517  0.00  0.00    +0.000 HD
BRANCH  32  35
ATOM     35  O   UNL     1       6.255  -0.867   0.224  0.00  0.00    +0.000 OA
BRANCH  35  36
ATOM     36  C   UNL     1       7.415  -0.882  -0.576  0.00  0.00    +0.000 C 
BRANCH  36  37
ATOM     37  C   UNL     1       7.991   0.487  -0.613  0.00  0.00    +0.000 A 
ATOM     38  C   UNL     1       7.388   1.495   0.129  0.00  0.00    +0.000 A 
ATOM     39  C   UNL     1       7.919   2.752   0.198  0.00  0.00    +0.000 A 
ATOM     40  C   UNL     1       9.217   2.925  -0.250  0.00  0.00    +0.000 A 
ATOM     41  C   UNL     1       9.632   2.080  -1.258  0.00  0.00    +0.000 A 
ATOM     42  C   UNL     1       8.985   0.870  -1.473  0.00  0.00    +0.000 A 
ENDBRANCH  36  37
ENDBRANCH  35  36
ENDBRANCH  32  35
ENDBRANCH  30  31
BRANCH  30  43
ATOM     43  C   UNL     1       3.131   1.225  -1.282  0.00  0.00    +0.000 C 
BRANCH  43  44
ATOM     44  C   UNL     1       3.395   2.602  -0.861  0.00  0.00    +0.000 C 
ATOM     45  C   UNL     1       2.997   3.713  -1.725  0.00  0.00    +0.000 C 
ATOM     46  C   UNL     1       3.820   2.875   0.514  0.00  0.00    +0.000 C 
ENDBRANCH  43  44
ENDBRANCH  30  43
ENDBRANCH   4  30
TORSDOF 15
