REMARK  Name = 
REMARK  33 active torsions:
REMARK  status: ('A' for Active; 'I' for Inactive)
REMARK    1  A    between atoms: N_1  and  C_2
REMARK    2  A    between atoms: C_2  and  C_3
REMARK    3  A    between atoms: C_2  and  C_46
REMARK    4  A    between atoms: C_3  and  C_4
REMARK    5  A    between atoms: C_4  and  C_5
REMARK    6  A    between atoms: N_7  and  C_8
REMARK    7  A    between atoms: C_8  and  C_9
REMARK    8  A    between atoms: C_8  and  C_11
REMARK    9  A    between atoms: C_9  and  S_10
REMARK   10  A    between atoms: N_13  and  C_14
REMARK   11  A    between atoms: C_14  and  C_15
REMARK   12  A    between atoms: N_17  and  C_18
REMARK   13  A    between atoms: C_18  and  C_19
REMARK   14  A    between atoms: C_19  and  C_20
REMARK   15  A    between atoms: C_20  and  C_21
REMARK   16  A    between atoms: C_21  and  N_22
REMARK   17  A    between atoms: N_22  and  C_23
REMARK   18  A    between atoms: C_23  and  C_24
REMARK   19  A    between atoms: C_24  and  C_25
REMARK   20  A    between atoms: C_25  and  N_26
REMARK   21  A    between atoms: C_27  and  C_29
REMARK   22  A    between atoms: C_29  and  N_30
REMARK   23  A    between atoms: C_31  and  C_33
REMARK   24  A    between atoms: C_33  and  C_34
REMARK   25  A    between atoms: C_33  and  N_36
REMARK   26  A    between atoms: C_34  and  S_35
REMARK   27  A    between atoms: C_37  and  C_39
REMARK   28  A    between atoms: C_39  and  C_40
REMARK   29  A    between atoms: C_40  and  C_41
REMARK   30  A    between atoms: C_41  and  N_42
REMARK   31  A    between atoms: C_41  and  C_43
REMARK   32  A    between atoms: C_43  and  O_45
REMARK   33  A    between atoms: C_46  and  O_48
REMARK                            x       y       z     vdW  Elec       q    Type
REMARK                         _______ _______ _______ _____ _____    ______ ____
ROOT
ATOM      1  N   UNK     1       0.577  -0.185   0.802  0.00  0.00    +0.000 NA
ATOM      2  H   UNK     1       1.096   0.323   1.518  0.00  0.00    +0.000 HD
ENDROOT
BRANCH   1   3
ATOM      3  C   UNK     1      -0.853  -0.176   1.099  0.00  0.00    +0.000 C 
BRANCH   3   4
ATOM      4  C   UNK     1      -1.365   1.164   0.633  0.00  0.00    +0.000 C 
BRANCH   4   5
ATOM      5  C   UNK     1      -2.860   1.252   0.598  0.00  0.00    +0.000 C 
BRANCH   5   6
ATOM      6  N   UNK     1      -3.433   0.117  -0.097  0.00  0.00    +0.000 N 
ATOM      7  C   UNK     1      -3.793  -1.097   0.539  0.00  0.00    +0.000 C 
ATOM      8  O   UNK     1      -3.704  -1.108   1.803  0.00  0.00    +0.000 OA
ATOM      9  H   UNK     1      -3.582   0.193  -1.067  0.00  0.00    +0.000 HD
BRANCH   7  10
ATOM     10  C   UNK     1      -4.958  -1.849  -0.005  0.00  0.00    +0.000 C 
BRANCH  10  11
ATOM     11  N   UNK     1      -6.133  -0.983   0.038  0.00  0.00    +0.000 N 
ATOM     12  C   UNK     1      -6.312  -0.086  -1.017  0.00  0.00    +0.000 C 
ATOM     13  O   UNK     1      -5.902  -0.287  -2.189  0.00  0.00    +0.000 OA
ATOM     14  H   UNK     1      -6.775  -1.030   0.783  0.00  0.00    +0.000 HD
BRANCH  12  15
ATOM     15  C   UNK     1      -7.726   0.737  -1.049  0.00  0.00    +0.000 C 
BRANCH  15  16
ATOM     16  N   UNK     1      -8.588  -0.566  -0.701  0.00  0.00    +0.000 N 
ATOM     17  C   UNK     1      -9.943  -0.313  -0.436  0.00  0.00    +0.000 C 
ATOM     18  O   UNK     1     -10.464   0.685  -0.956  0.00  0.00    +0.000 OA
ATOM     19  H   UNK     1      -8.200  -1.470  -0.675  0.00  0.00    +0.000 HD
BRANCH  17  20
ATOM     20  C   UNK     1     -10.798  -1.236   0.365  0.00  0.00    +0.000 C 
BRANCH  20  21
ATOM     21  C   UNK     1     -10.655  -0.707   1.791  0.00  0.00    +0.000 C 
BRANCH  21  22
ATOM     22  C   UNK     1     -11.720   0.577   1.688  0.00  0.00    +0.000 C 
BRANCH  22  23
ATOM     23  N   UNK     1     -11.068   1.283   2.970  0.00  0.00    +0.000 NA
ATOM     24  H   UNK     1     -10.941   0.592   3.710  0.00  0.00    +0.000 HD
ATOM     25  H   UNK     1     -11.686   2.025   3.300  0.00  0.00    +0.000 HD
ENDBRANCH  22  23
BRANCH  22  26
ATOM     26  C   UNK     1     -12.849  -0.214   2.572  0.00  0.00    +0.000 C 
ATOM     27  O   UNK     1     -13.493  -0.998   1.806  0.00  0.00    +0.000 OA
BRANCH  26  28
ATOM     28  O   UNK     1     -12.416  -0.760   3.749  0.00  0.00    +0.000 OA
ATOM     29  H   UNK     1     -11.935  -0.237   4.360  0.00  0.00    +0.000 HD
ENDBRANCH  26  28
ENDBRANCH  22  26
ENDBRANCH  21  22
ENDBRANCH  20  21
ENDBRANCH  17  20
ENDBRANCH  15  16
BRANCH  15  30
ATOM     30  C   UNK     1      -7.598   1.162   0.563  0.00  0.00    +0.000 C 
BRANCH  30  31
ATOM     31  S   UNK     1      -6.068   2.135   0.629  0.00  0.00    +0.000 S 
ATOM     32  H   UNK     1      -5.033   1.386   0.163  0.00  0.00    +0.000 HD
ENDBRANCH  30  31
ENDBRANCH  15  30
ENDBRANCH  12  15
ENDBRANCH  10  11
ENDBRANCH   7  10
ENDBRANCH   5   6
ENDBRANCH   4   5
ENDBRANCH   3   4
ENDBRANCH   1   3
BRANCH   1  33
ATOM     33  C   UNK     1       0.691   0.486  -0.492  0.00  0.00    +0.000 C 
BRANCH  33  34
ATOM     34  C   UNK     1       0.412  -0.563  -1.542  0.00  0.00    +0.000 C 
BRANCH  34  35
ATOM     35  C   UNK     1       1.163  -0.251  -2.829  0.00  0.00    +0.000 C 
BRANCH  35  36
ATOM     36  C   UNK     1       2.627  -0.566  -2.559  0.00  0.00    +0.000 C 
BRANCH  36  39
ATOM     37  C   UNK     1       3.998   0.363  -0.641  0.00  0.00    +0.000 C 
ATOM     38  O   UNK     1       4.029  -0.811  -0.158  0.00  0.00    +0.000 OA
ATOM     39  N   UNK     1       3.186   0.534  -1.806  0.00  0.00    +0.000 N 
ATOM     40  H   UNK     1       2.996   1.451  -2.111  0.00  0.00    +0.000 HD
BRANCH  37  41
ATOM     41  C   UNK     1       5.227   1.222  -0.600  0.00  0.00    +0.000 C 
BRANCH  41  44
ATOM     42  C   UNK     1       7.288   0.286  -1.757  0.00  0.00    +0.000 C 
ATOM     43  O   UNK     1       6.768   0.735  -2.839  0.00  0.00    +0.000 OA
ATOM     44  N   UNK     1       6.299   0.282  -0.763  0.00  0.00    +0.000 N 
ATOM     45  H   UNK     1       6.345  -0.447  -0.103  0.00  0.00    +0.000 HD
BRANCH  42  46
ATOM     46  C   UNK     1       7.811  -1.197  -2.253  0.00  0.00    +0.000 C 
BRANCH  46  49
ATOM     47  C   UNK     1       9.825   0.212  -1.455  0.00  0.00    +0.000 C 
ATOM     48  O   UNK     1       9.166   1.258  -1.599  0.00  0.00    +0.000 OA
ATOM     49  N   UNK     1       9.367  -0.926  -2.037  0.00  0.00    +0.000 N 
ATOM     50  H   UNK     1      10.016  -1.605  -2.335  0.00  0.00    +0.000 HD
BRANCH  47  51
ATOM     51  C   UNK     1      11.310   0.405  -1.440  0.00  0.00    +0.000 C 
BRANCH  51  52
ATOM     52  C   UNK     1      11.904   0.123  -0.086  0.00  0.00    +0.000 C 
BRANCH  52  53
ATOM     53  C   UNK     1      10.787   0.726   1.000  0.00  0.00    +0.000 C 
BRANCH  53  54
ATOM     54  N   UNK     1      11.890   1.695   1.636  0.00  0.00    +0.000 NA
ATOM     55  H   UNK     1      11.907   2.575   1.121  0.00  0.00    +0.000 HD
ATOM     56  H   UNK     1      12.806   1.250   1.581  0.00  0.00    +0.000 HD
ENDBRANCH  53  54
BRANCH  53  57
ATOM     57  C   UNK     1      11.120  -0.455   2.089  0.00  0.00    +0.000 C 
ATOM     58  O   UNK     1      10.366  -1.438   1.801  0.00  0.00    +0.000 OA
BRANCH  57  59
ATOM     59  O   UNK     1      10.938  -0.003   3.405  0.00  0.00    +0.000 OA
ATOM     60  H   UNK     1      11.443   0.718   3.727  0.00  0.00    +0.000 HD
ENDBRANCH  57  59
ENDBRANCH  53  57
ENDBRANCH  52  53
ENDBRANCH  51  52
ENDBRANCH  47  51
ENDBRANCH  46  49
BRANCH  46  61
ATOM     61  C   UNK     1       7.674  -1.943  -0.760  0.00  0.00    +0.000 C 
BRANCH  61  62
ATOM     62  S   UNK     1       8.276  -0.890   0.488  0.00  0.00    +0.000 S 
ATOM     63  H   UNK     1       9.586  -0.609   0.252  0.00  0.00    +0.000 HD
ENDBRANCH  61  62
ENDBRANCH  46  61
ENDBRANCH  42  46
ENDBRANCH  41  44
ENDBRANCH  37  41
ENDBRANCH  36  39
ENDBRANCH  35  36
ENDBRANCH  34  35
ENDBRANCH  33  34
ENDBRANCH   1  33
TORSDOF 33
