REMARK  Name = 445707
REMARK  15 active torsions:
REMARK  status: ('A' for Active; 'I' for Inactive)
REMARK    1  A    between atoms: SG_1  and  CB_14
REMARK    2  A    between atoms: SG_1  and  C_18
REMARK    3  A    between atoms: O_4  and  C_19
REMARK    4  A    between atoms: O_6  and  C_26
REMARK    5  A    between atoms: N_8  and  CA_11
REMARK    6  A    between atoms: N_9  and  CA_21
REMARK    7  A    between atoms: N_10  and  CA_15
REMARK    8  A    between atoms: CA_11  and  CB_14
REMARK    9  A    between atoms: CA_11  and  C_17
REMARK   10  A    between atoms: C_12  and  C_13
REMARK   11  A    between atoms: C_12  and  CA_15
REMARK   12  A    between atoms: C_13  and  C_16
REMARK   13  A    between atoms: CA_15  and  C_19
REMARK   14  A    between atoms: C_18  and  C_20
REMARK   15  A    between atoms: CA_21  and  C_26
REMARK                            x       y       z     vdW  Elec       q    Type
REMARK                         _______ _______ _______ _____ _____    ______ ____
ROOT
ATOM      1  CA  UNL     1       0.089  -1.840   0.881  0.00  0.00    +0.000 C 
ENDROOT
BRANCH   1   3
ATOM      2  O   UNL     1       2.677  -1.302   2.040  0.00  0.00    +0.000 OA
ATOM      3  N   UNL     1       1.258  -1.331   0.201  0.00  0.00    +0.000 N 
ATOM      4  C   UNL     1       2.464  -1.103   0.847  0.00  0.00    +0.000 C 
ATOM      5  H   UNL     1       1.179  -1.110  -0.787  0.00  0.00    +0.000 HD
BRANCH   4   6
ATOM      6  C   UNL     1       3.514  -0.559  -0.107  0.00  0.00    +0.000 C 
BRANCH   6   7
ATOM      7  C   UNL     1       4.854  -0.301   0.586  0.00  0.00    +0.000 C 
BRANCH   7   8
ATOM      8  CA  UNL     1       5.941   0.179  -0.382  0.00  0.00    +0.000 C 
BRANCH   8   9
ATOM      9  N   UNL     1       7.188   0.403   0.355  0.00  0.00    +0.000 NA
ATOM     10  H1  UNL     1       7.477  -0.463   0.807  0.00  0.00    +0.000 HD
ATOM     11  H2  UNL     1       7.932   0.643  -0.299  0.00  0.00    +0.000 HD
ENDBRANCH   8   9
BRANCH   8  13
ATOM     12  OXT UNL     1       5.788   2.607  -0.530  0.00  0.00    +0.000 OA
ATOM     13  C   UNL     1       5.567   1.506  -1.018  0.00  0.00    +0.000 C 
BRANCH  13  14
ATOM     14  O   UNL     1       4.922   1.344  -2.202  0.00  0.00    +0.000 OA
ATOM     15  H   UNL     1       4.670   2.204  -2.602  0.00  0.00    +0.000 HD
ENDBRANCH  13  14
ENDBRANCH   8  13
ENDBRANCH   7   8
ENDBRANCH   6   7
ENDBRANCH   4   6
ENDBRANCH   1   3
BRANCH   1  18
ATOM     16  O   UNL     1      -0.381  -2.885  -1.258  0.00  0.00    +0.000 OA
ATOM     17  N   UNL     1      -1.763  -3.362   0.543  0.00  0.00    +0.000 N 
ATOM     18  C   ACE A   1      -0.683  -2.746  -0.075  0.00  0.00    +0.000 C 
ATOM     19  H   UNL     1      -1.933  -3.208   1.532  0.00  0.00    +0.000 HD
BRANCH  17  20
ATOM     20  CA  UNL     1      -2.662  -4.247  -0.160  0.00  0.00    +0.000 C 
BRANCH  20  22
ATOM     21  OXT UNL     1      -4.713  -4.097  -1.409  0.00  0.00    +0.000 OA
ATOM     22  C   UNL     1      -3.832  -3.527  -0.778  0.00  0.00    +0.000 C 
BRANCH  22  23
ATOM     23  O   UNL     1      -3.816  -2.190  -0.569  0.00  0.00    +0.000 OA
ATOM     24  H   UNL     1      -4.586  -1.744  -0.981  0.00  0.00    +0.000 HD
ENDBRANCH  22  23
ENDBRANCH  20  22
ENDBRANCH  17  20
ENDBRANCH   1  18
BRANCH   1  25
ATOM     25  CB  UNL     1      -0.766  -0.724   1.485  0.00  0.00    +0.000 C 
BRANCH  25  26
ATOM     26  SG  UNL     1      -1.466   0.416   0.246  0.00  0.00    +0.000 S 
BRANCH  26  27
ATOM     27  C   UNL     1      -2.286   1.556   1.382  0.00  0.00    +0.000 C 
BRANCH  27  28
ATOM     28  C   UNL     1      -2.993   2.668   0.658  0.00  0.00    +0.000 A 
ATOM     29  C   UNL     1      -4.324   2.513   0.272  0.00  0.00    +0.000 A 
ATOM     30  C   UNL     1      -2.318   3.856   0.374  0.00  0.00    +0.000 A 
ATOM     31  C   UNL     1      -4.981   3.545  -0.400  0.00  0.00    +0.000 A 
ATOM     32  C   UNL     1      -2.974   4.887  -0.298  0.00  0.00    +0.000 A 
ATOM     33  C   UNL     1      -4.305   4.732  -0.684  0.00  0.00    +0.000 A 
ENDBRANCH  27  28
ENDBRANCH  26  27
ENDBRANCH  25  26
ENDBRANCH   1  25
TORSDOF 15
