REMARK  Name = 
REMARK  17 active torsions:
REMARK  status: ('A' for Active; 'I' for Inactive)
REMARK    1  A    between atoms: C_1  and  C_2
REMARK    2  A    between atoms: C_2  and  C_3
REMARK    3  A    between atoms: C_2  and  C_4
REMARK    4  A    between atoms: C_4  and  N_5
REMARK    5  A    between atoms: C_4  and  C_21
REMARK    6  A    between atoms: C_6  and  C_8
REMARK    7  A    between atoms: C_11  and  C_12
REMARK    8  A    between atoms: N_14  and  C_15
REMARK    9  A    between atoms: C_15  and  C_16
REMARK   10  A    between atoms: C_16  and  O_18
REMARK   11  A    between atoms: C_27  and  C_28
REMARK   12  A    between atoms: N_30  and  C_31
REMARK   13  A    between atoms: C_31  and  C_32
REMARK   14  A    between atoms: C_31  and  C_38
REMARK   15  A    between atoms: C_32  and  C_34
REMARK   16  A    between atoms: C_38  and  C_39
REMARK   17  A    between atoms: C_38  and  C_40
REMARK                            x       y       z     vdW  Elec       q    Type
REMARK                         _______ _______ _______ _____ _____    ______ ____
ROOT
ATOM      1  C   UNL     1       0.740  -0.249  -0.062  0.00  0.00    +0.000 C 
ENDROOT
BRANCH   1   2
ATOM      2  C   UNL     1      -0.191   0.371  -1.223  0.00  0.00    +0.000 C 
ATOM      3  O   UNL     1       0.191   1.369  -1.821  0.00  0.00    +0.000 OA
ATOM      4  N   UNL     1      -1.352  -0.387  -1.595  0.00  0.00    +0.000 N 
ATOM      5  C   UNL     1      -1.877  -0.429  -2.933  0.00  0.00    +0.000 C 
ATOM      6  C   UNL     1      -2.798   0.744  -3.071  0.00  0.00    +0.000 C 
ATOM      7  C   UNL     1      -2.737   1.439  -1.759  0.00  0.00    +0.000 C 
ATOM      8  C   UNL     1      -2.530   0.189  -0.718  0.00  0.00    +0.000 C 
BRANCH   8   9
ATOM      9  C   UNL     1      -3.691  -0.698  -1.411  0.00  0.00    +0.000 C 
ATOM     10  O   UNL     1      -3.455  -1.927  -1.323  0.00  0.00    +0.000 OA
ATOM     11  N   UNL     1      -4.849  -0.234  -0.694  0.00  0.00    +0.000 N 
ATOM     12  H   UNL     1      -4.978   0.715  -0.468  0.00  0.00    +0.000 HD
BRANCH  11  13
ATOM     13  C   UNL     1      -5.894  -1.339  -0.291  0.00  0.00    +0.000 C 
BRANCH  13  14
ATOM     14  C   UNL     1      -5.893  -0.894   1.291  0.00  0.00    +0.000 C 
ATOM     15  C   UNL     1      -6.732  -1.903   2.009  0.00  0.00    +0.000 C 
ATOM     16  C   UNL     1      -4.467  -0.858   1.738  0.00  0.00    +0.000 C 
ENDBRANCH  13  14
BRANCH  13  17
ATOM     17  C   UNL     1      -7.131  -0.386  -0.681  0.00  0.00    +0.000 C 
ATOM     18  O   UNL     1      -7.192  -0.463  -1.912  0.00  0.00    +0.000 OA
BRANCH  17  19
ATOM     19  C   UNL     1      -7.480   0.844  -0.099  0.00  0.00    +0.000 C 
ATOM     20  F   UNL     1      -8.881   0.880  -0.102  0.00  0.00    +0.000 F 
ATOM     21  F   UNL     1      -7.151   1.197   1.159  0.00  0.00    +0.000 F 
ATOM     22  F   UNL     1      -7.123   1.938  -0.890  0.00  0.00    +0.000 F 
ENDBRANCH  17  19
ENDBRANCH  13  17
ENDBRANCH  11  13
ENDBRANCH   8   9
ENDBRANCH   1   2
BRANCH   1  23
ATOM     23  N   UNL     1       1.094   1.173   0.533  0.00  0.00    +0.000 N 
ATOM     24  C   UNL     1       2.221   1.255   1.364  0.00  0.00    +0.000 C 
ATOM     25  O   UNL     1       1.968   0.601   2.428  0.00  0.00    +0.000 OA
ATOM     26  H   UNL     1       0.547   1.966   0.329  0.00  0.00    +0.000 HD
BRANCH  24  27
ATOM     27  C   UNL     1       3.639   1.298   1.031  0.00  0.00    +0.000 A 
ATOM     28  C   UNL     1       4.598   0.608   1.778  0.00  0.00    +0.000 A 
ATOM     29  C   UNL     1       5.424  -0.333   1.169  0.00  0.00    +0.000 A 
ATOM     30  C   UNL     1       5.583  -0.273  -0.212  0.00  0.00    +0.000 A 
ATOM     31  C   UNL     1       5.044   0.834  -0.846  0.00  0.00    +0.000 A 
ATOM     32  C   UNL     1       4.182   1.708  -0.181  0.00  0.00    +0.000 A 
BRANCH  30  33
ATOM     33  C   UNL     1       6.749  -1.013  -0.703  0.00  0.00    +0.000 C 
ATOM     34  O   UNL     1       6.693  -2.278  -0.793  0.00  0.00    +0.000 OA
ATOM     35  N   UNL     1       8.038  -0.473  -0.525  0.00  0.00    +0.000 N 
ATOM     36  H   UNL     1       8.192   0.450  -0.831  0.00  0.00    +0.000 HD
BRANCH  35  37
ATOM     37  C   UNL     1       9.164  -1.183   0.080  0.00  0.00    +0.000 C 
BRANCH  37  38
ATOM     38  C   UNL     1       9.353  -0.506   1.404  0.00  0.00    +0.000 C 
ATOM     39  O   UNL     1       8.972  -1.022   2.489  0.00  0.00    +0.000 OA
BRANCH  38  40
ATOM     40  O   UNL     1       9.368   0.891   1.364  0.00  0.00    +0.000 OA
ATOM     41  H   UNL     1       9.641   1.335   0.585  0.00  0.00    +0.000 HD
ENDBRANCH  38  40
ENDBRANCH  37  38
ENDBRANCH  35  37
ENDBRANCH  30  33
ENDBRANCH  24  27
ENDBRANCH   1  23
BRANCH   1  43
ATOM     42  C   UNL     1      -0.252  -1.795   1.196  0.00  0.00    +0.000 C 
ATOM     43  C   UNL     1      -0.529  -0.581   0.920  0.00  0.00    +0.000 C 
ATOM     44  C   UNL     1      -0.813   0.413   1.895  0.00  0.00    +0.000 C 
ENDBRANCH   1  43
TORSDOF 13
