REMARK  Name = 44195571
REMARK  11 active torsions:
REMARK  status: ('A' for Active; 'I' for Inactive)
REMARK    1  A    between atoms: O_4  and  C_18
REMARK    2  A    between atoms: O_4  and  C_35
REMARK    3  A    between atoms: N_8  and  C_14
REMARK    4  A    between atoms: N_8  and  C_28
REMARK    5  A    between atoms: N_9  and  C_29
REMARK    6  A    between atoms: N_12  and  C_37
REMARK    7  A    between atoms: C_13  and  C_24
REMARK    8  A    between atoms: C_13  and  C_25
REMARK    9  A    between atoms: C_27  and  C_33
REMARK   10  A    between atoms: C_31  and  C_36
REMARK   11  A    between atoms: C_35  and  C_37
REMARK                            x       y       z     vdW  Elec       q    Type
REMARK                         _______ _______ _______ _____ _____    ______ ____
ROOT
ATOM      1  C   UNL     1      -0.346   2.650  -0.010  0.00  0.00    +0.000 A 
ATOM      2  C   UNL     1       1.832   1.605   0.038  0.00  0.00    +0.000 A 
ATOM      3  C   UNL     1       0.451   1.512  -0.134  0.00  0.00    +0.000 A 
ATOM      4  C   UNL     1       0.238   3.882   0.285  0.00  0.00    +0.000 A 
ATOM      5  C   UNL     1       2.416   2.837   0.333  0.00  0.00    +0.000 A 
ATOM      6  C   UNL     1       1.620   3.976   0.456  0.00  0.00    +0.000 A 
ENDROOT
BRANCH   2   8
ATOM      7  O   UNL     1       4.323  -3.727  -0.126  0.00  0.00    +0.000 OA
ATOM      8  N   UNL     1       2.629   0.468  -0.087  0.00  0.00    +0.000 N 
ATOM      9  N   UNL     1       3.897   0.582  -0.530  0.00  0.00    +0.000 NA
ATOM     10  C   UNL     1       1.109  -2.675   1.369  0.00  0.00    +0.000 C 
ATOM     11  C   UNL     1       0.955  -1.275   0.699  0.00  0.00    +0.000 C 
ATOM     12  C   UNL     1       1.996  -3.623   0.507  0.00  0.00    +0.000 C 
ATOM     13  C   UNL     1       2.270  -0.815   0.191  0.00  0.00    +0.000 A 
ATOM     14  C   UNL     1       3.366  -1.592  -0.093  0.00  0.00    +0.000 A 
ATOM     15  C   UNL     1       1.719  -2.528   2.780  0.00  0.00    +0.000 C 
ATOM     16  C   UNL     1      -0.288  -3.305   1.519  0.00  0.00    +0.000 C 
ATOM     17  C   UNL     1       3.342  -3.022   0.093  0.00  0.00    +0.000 C 
ATOM     18  C   UNL     1       4.341  -0.680  -0.529  0.00  0.00    +0.000 A 
BRANCH  18  22
ATOM     19  F   UNL     1       6.045  -2.294  -0.911  0.00  0.00    +0.000 F 
ATOM     20  F   UNL     1       6.000  -0.582  -2.250  0.00  0.00    +0.000 F 
ATOM     21  F   UNL     1       6.687  -0.339  -0.207  0.00  0.00    +0.000 F 
ATOM     22  C   UNL     1       5.722  -0.962  -0.960  0.00  0.00    +0.000 C 
ENDBRANCH  18  22
ENDBRANCH   2   8
BRANCH   4  25
ATOM     23  O   UNL     1      -0.821   5.809  -0.561  0.00  0.00    +0.000 OA
ATOM     24  N   UNL     1      -1.056   5.400   1.683  0.00  0.00    +0.000 N 
ATOM     25  C   UNL     1      -0.566   5.090   0.420  0.00  0.00    +0.000 C 
ATOM     26  H   UNL     1      -0.865   4.819   2.493  0.00  0.00    +0.000 HD
ATOM     27  H   UNL     1      -1.627   6.225   1.834  0.00  0.00    +0.000 HD
ENDBRANCH   4  25
BRANCH   1  28
ATOM     28  N   UNL     1      -1.743   2.534  -0.186  0.00  0.00    +0.000 N 
ATOM     29  H   UNL     1      -2.315   3.350  -0.000  0.00  0.00    +0.000 HD
BRANCH  28  30
ATOM     30  C   UNL     1      -2.393   1.279  -0.493  0.00  0.00    +0.000 C 
ATOM     31  C   UNL     1      -2.523   0.446   0.785  0.00  0.00    +0.000 C 
ATOM     32  C   UNL     1      -3.760   1.553  -1.125  0.00  0.00    +0.000 C 
ATOM     33  C   UNL     1      -4.658  -0.574  -0.099  0.00  0.00    +0.000 C 
ATOM     34  C   UNL     1      -3.294  -0.846   0.531  0.00  0.00    +0.000 C 
ATOM     35  C   UNL     1      -4.529   0.259  -1.374  0.00  0.00    +0.000 C 
BRANCH  33  36
ATOM     36  O   UNL     1      -5.275  -1.820  -0.403  0.00  0.00    +0.000 OA
BRANCH  36  38
ATOM     37  O   UNL     1      -7.352  -0.893  -0.025  0.00  0.00    +0.000 OA
ATOM     38  C   UNL     1      -6.643  -1.844  -0.327  0.00  0.00    +0.000 C 
BRANCH  38  39
ATOM     39  C   UNL     1      -7.128  -3.228  -0.677  0.00  0.00    +0.000 C 
BRANCH  39  40
ATOM     40  N   UNL     1      -8.581  -3.259  -0.583  0.00  0.00    +0.000 NA
ATOM     41  H   UNL     1      -8.866  -3.093   0.382  0.00  0.00    +0.000 HD
ATOM     42  H   UNL     1      -8.914  -4.193  -0.818  0.00  0.00    +0.000 HD
ENDBRANCH  39  40
ENDBRANCH  38  39
ENDBRANCH  36  38
ENDBRANCH  33  36
ENDBRANCH  28  30
ENDBRANCH   1  28
TORSDOF 9
