REMARK  Name = 49866368
REMARK  17 active torsions:
REMARK  status: ('A' for Active; 'I' for Inactive)
REMARK    1  A    between atoms: O_2  and  C_19
REMARK    2  A    between atoms: O_2  and  C_25
REMARK    3  A    between atoms: OG1_4  and  CB_17
REMARK    4  A    between atoms: O_7  and  C_23
REMARK    5  A    between atoms: N_9  and  CA_13
REMARK    6  A    between atoms: N_10  and  CA_16
REMARK    7  A    between atoms: C_11  and  C_15
REMARK    8  A    between atoms: C_12  and  C_19
REMARK    9  A    between atoms: CA_13  and  CB_17
REMARK   10  A    between atoms: CA_13  and  C_18
REMARK   11  A    between atoms: CB_14  and  CA_16
REMARK   12  A    between atoms: CB_14  and  CG1_20
REMARK   13  A    between atoms: CB_14  and  CG2_21
REMARK   14  A    between atoms: CA_16  and  C_23
REMARK   15  A    between atoms: CB_17  and  CG2_22
REMARK   16  A    between atoms: CG1_20  and  CD1_24
REMARK   17  A    between atoms: C_25  and  C_26
REMARK                            x       y       z     vdW  Elec       q    Type
REMARK                         _______ _______ _______ _____ _____    ______ ____
ROOT
ATOM      1  CA  UNL     1       0.439   1.357  -0.714  0.00  0.00    +0.000 C 
ENDROOT
BRANCH   1   3
ATOM      2  O   UNL     1      -0.495  -1.053  -2.046  0.00  0.00    +0.000 OA
ATOM      3  N   UNL     1      -0.877   0.774  -0.652  0.00  0.00    +0.000 N 
ATOM      4  C   ACE A   0      -1.227  -0.384  -1.327  0.00  0.00    +0.000 C 
ATOM      5  H   UNL     1      -1.563   1.211  -0.044  0.00  0.00    +0.000 HD
BRANCH   4   7
ATOM      6  O   UNL     1      -2.770  -2.185  -0.741  0.00  0.00    +0.000 OA
ATOM      7  C   UNL     1      -2.643  -0.808  -1.118  0.00  0.00    +0.000 C 
ATOM      8  C   UNL     1      -3.111  -1.208   0.251  0.00  0.00    +0.000 C 
BRANCH   8  10
ATOM      9  O   UNL     1      -5.153  -2.208   0.850  0.00  0.00    +0.000 OA
ATOM     10  C   UNL     1      -4.542  -1.186   0.573  0.00  0.00    +0.000 C 
BRANCH  10  11
ATOM     11  O   UNL     1      -5.046   0.078   0.516  0.00  0.00    +0.000 OA
BRANCH  11  12
ATOM     12  C   UNL     1      -6.440   0.197   0.817  0.00  0.00    +0.000 C 
ATOM     13  C   UNL     1      -6.844   1.652   0.712  0.00  0.00    +0.000 C 
ENDBRANCH  11  12
ENDBRANCH  10  11
ENDBRANCH   8  10
ENDBRANCH   4   7
ENDBRANCH   1   3
BRANCH   1  16
ATOM     14  O   UNL     1       0.851   0.315   1.438  0.00  0.00    +0.000 OA
ATOM     15  N   UNL     1       2.625   0.564  -0.037  0.00  0.00    +0.000 N 
ATOM     16  C   UNL     1       1.295   0.676   0.350  0.00  0.00    +0.000 C 
ATOM     17  H   UNL     1       2.906   0.897  -0.955  0.00  0.00    +0.000 HD
BRANCH  15  18
ATOM     18  CA  UNL     1       3.639   0.000   0.818  0.00  0.00    +0.000 C 
BRANCH  18  20
ATOM     19  OXT UNL     1       5.954   0.475   1.348  0.00  0.00    +0.000 OA
ATOM     20  C   UNL     1       4.975   0.712   0.648  0.00  0.00    +0.000 C 
BRANCH  20  21
ATOM     21  O   UNL     1       4.998   1.642  -0.337  0.00  0.00    +0.000 OA
ATOM     22  H   UNL     1       5.873   2.078  -0.410  0.00  0.00    +0.000 HD
ENDBRANCH  20  21
ENDBRANCH  18  20
BRANCH  18  23
ATOM     23  CB  UNL     1       3.786  -1.532   0.646  0.00  0.00    +0.000 C 
ATOM     24  CG2 UNL     1       2.651  -2.311   1.324  0.00  0.00    +0.000 C 
BRANCH  23  25
ATOM     25  CG1 UNL     1       3.909  -1.887  -0.851  0.00  0.00    +0.000 C 
ATOM     26  CD1 UNL     1       4.129  -3.372  -1.109  0.00  0.00    +0.000 C 
ENDBRANCH  23  25
ENDBRANCH  18  23
ENDBRANCH  15  18
ENDBRANCH   1  16
BRANCH   1  27
ATOM     27  CB  UNL     1       0.423   2.882  -0.536  0.00  0.00    +0.000 C 
ATOM     28  CG2 UNL     1      -0.448   3.575  -1.577  0.00  0.00    +0.000 C 
BRANCH  27  29
ATOM     29  OG1 UNL     1      -0.076   3.234   0.754  0.00  0.00    +0.000 OA
ATOM     30  HG1 UNL     1      -0.031   4.202   0.833  0.00  0.00    +0.000 HD
ENDBRANCH  27  29
ENDBRANCH   1  27
TORSDOF 13
