REMARK  Name = 
REMARK  24 active torsions:
REMARK  status: ('A' for Active; 'I' for Inactive)
REMARK    1  A    between atoms: C_1  and  C_2
REMARK    2  A    between atoms: C_2  and  O_3
REMARK    3  A    between atoms: O_3  and  C_4
REMARK    4  A    between atoms: C_4  and  C_6
REMARK    5  A    between atoms: C_7  and  C_8
REMARK    6  A    between atoms: C_8  and  C_9
REMARK    7  A    between atoms: C_8  and  N_16
REMARK    8  A    between atoms: C_9  and  C_10
REMARK    9  A    between atoms: C_17  and  C_19
REMARK   10  A    between atoms: C_19  and  C_20
REMARK   11  A    between atoms: C_19  and  N_24
REMARK   12  A    between atoms: C_20  and  C_21
REMARK   13  A    between atoms: C_21  and  C_22
REMARK   14  A    between atoms: C_21  and  C_23
REMARK   15  A    between atoms: C_25  and  C_27
REMARK   16  A    between atoms: C_27  and  N_28
REMARK   17  A    between atoms: C_27  and  C_42
REMARK   18  A    between atoms: C_29  and  C_31
REMARK   19  A    between atoms: C_31  and  C_32
REMARK   20  A    between atoms: C_31  and  N_33
REMARK   21  A    between atoms: C_34  and  C_36
REMARK   22  A    between atoms: C_38  and  C_39
REMARK   23  A    between atoms: C_42  and  C_43
REMARK   24  A    between atoms: C_42  and  C_44
REMARK                            x       y       z     vdW  Elec       q    Type
REMARK                         _______ _______ _______ _____ _____    ______ ____
ROOT
ATOM      1  C   UNL     1      -0.455   0.903  -1.306  0.00  0.00    +0.000 C 
ENDROOT
BRANCH   1   3
ATOM      2  N   UNL     1      -2.820  -0.102  -1.119  0.00  0.00    +0.000 N 
ATOM      3  C   UNL     1      -1.713   0.421  -0.363  0.00  0.00    +0.000 C 
ATOM      4  O   UNL     1      -1.905   1.407   0.420  0.00  0.00    +0.000 OA
ATOM      5  H   UNL     1      -2.779  -0.532  -2.004  0.00  0.00    +0.000 HD
BRANCH   2   6
ATOM      6  C   UNL     1      -4.137   0.155  -0.232  0.00  0.00    +0.000 C 
BRANCH   6   8
ATOM      7  C   UNL     1      -5.143  -2.086   0.161  0.00  0.00    +0.000 C 
ATOM      8  C   UNL     1      -4.850  -1.219  -0.792  0.00  0.00    +0.000 C 
BRANCH   7   9
ATOM      9  C   UNL     1      -6.511  -2.418   0.585  0.00  0.00    +0.000 C 
ATOM     10  O   UNL     1      -7.347  -2.624  -0.349  0.00  0.00    +0.000 OA
BRANCH   9  11
ATOM     11  O   UNL     1      -7.078  -1.942   1.760  0.00  0.00    +0.000 OA
BRANCH  11  13
ATOM     12  C   UNL     1      -7.803   0.150   1.931  0.00  0.00    +0.000 C 
ATOM     13  C   UNL     1      -8.185  -1.068   1.813  0.00  0.00    +0.000 C 
ENDBRANCH  11  13
ENDBRANCH   9  11
ENDBRANCH   7   9
ENDBRANCH   6   8
BRANCH   6  14
ATOM     14  C   UNL     1      -4.770   1.200  -1.373  0.00  0.00    +0.000 C 
BRANCH  14  15
ATOM     15  C   UNL     1      -5.775   0.235  -2.257  0.00  0.00    +0.000 C 
ATOM     16  C   UNL     1      -5.534   1.133  -3.635  0.00  0.00    +0.000 C 
ATOM     17  C   UNL     1      -5.699   2.515  -3.098  0.00  0.00    +0.000 C 
ATOM     18  N   UNL     1      -6.733   2.415  -2.116  0.00  0.00    +0.000 N 
ATOM     19  C   UNL     1      -7.099   1.098  -1.853  0.00  0.00    +0.000 C 
ATOM     20  O   UNL     1      -8.186   0.495  -1.753  0.00  0.00    +0.000 OA
ATOM     21  H   UNL     1      -7.142   3.194  -1.674  0.00  0.00    +0.000 HD
ENDBRANCH  14  15
ENDBRANCH   6  14
ENDBRANCH   2   6
ENDBRANCH   1   3
BRANCH   1  22
ATOM     22  N   UNL     1       0.545   1.000  -0.061  0.00  0.00    +0.000 N 
ATOM     23  C   UNL     1       1.025  -0.127   0.528  0.00  0.00    +0.000 C 
ATOM     24  O   UNL     1       0.446  -1.234   0.298  0.00  0.00    +0.000 OA
ATOM     25  H   UNL     1       0.814   1.883   0.281  0.00  0.00    +0.000 HD
BRANCH  23  26
ATOM     26  C   UNL     1       1.238  -0.119   2.154  0.00  0.00    +0.000 C 
BRANCH  26  27
ATOM     27  N   UNL     1       2.602  -0.953   2.034  0.00  0.00    +0.000 N 
ATOM     28  C   UNL     1       3.533  -0.394   1.151  0.00  0.00    +0.000 C 
ATOM     29  O   UNL     1       3.407   0.658   0.525  0.00  0.00    +0.000 OA
ATOM     30  H   UNL     1       2.770  -1.783   2.536  0.00  0.00    +0.000 HD
BRANCH  28  31
ATOM     31  C   UNL     1       4.753  -1.377   0.698  0.00  0.00    +0.000 C 
ATOM     32  C   UNL     1       5.234  -1.552   2.296  0.00  0.00    +0.000 C 
BRANCH  31  33
ATOM     33  N   UNL     1       5.753  -0.139   0.494  0.00  0.00    +0.000 N 
ATOM     34  C   UNL     1       6.900  -0.423  -0.270  0.00  0.00    +0.000 C 
ATOM     35  O   UNL     1       6.744  -1.074  -1.321  0.00  0.00    +0.000 OA
ATOM     36  H   UNL     1       5.577   0.752   0.874  0.00  0.00    +0.000 HD
BRANCH  34  37
ATOM     37  C   UNL     1       8.227  -0.017   0.230  0.00  0.00    +0.000 A 
ATOM     38  C   UNL     1       9.036  -0.852   0.996  0.00  0.00    +0.000 A 
ATOM     39  C   UNL     1       9.593  -0.120   2.042  0.00  0.00    +0.000 A 
ATOM     40  C   UNL     1       9.886  -0.611   3.425  0.00  0.00    +0.000 C 
ATOM     41  O   UNL     1       9.456   1.129   1.629  0.00  0.00    +0.000 OA
ATOM     42  N   UNL     1       8.512   1.209   0.737  0.00  0.00    +0.000 NA
ENDBRANCH  34  37
ENDBRANCH  31  33
ENDBRANCH  28  31
ENDBRANCH  26  27
BRANCH  26  43
ATOM     43  C   UNL     1       2.050   1.347   2.163  0.00  0.00    +0.000 C 
ATOM     44  C   UNL     1       0.988   2.388   2.243  0.00  0.00    +0.000 C 
ATOM     45  C   UNL     1       2.633   1.268   3.575  0.00  0.00    +0.000 C 
ENDBRANCH  26  43
ENDBRANCH  23  26
ENDBRANCH   1  22
BRANCH   1  46
ATOM     46  C   UNL     1      -0.030  -0.672  -1.690  0.00  0.00    +0.000 C 
BRANCH  46  47
ATOM     47  C   UNL     1      -0.375  -0.818  -3.140  0.00  0.00    +0.000 C 
ATOM     48  C   UNL     1       0.872  -1.175  -3.927  0.00  0.00    +0.000 C 
ATOM     49  C   UNL     1      -1.285  -2.038  -3.233  0.00  0.00    +0.000 C 
ENDBRANCH  46  47
ENDBRANCH   1  46
TORSDOF 17
