REMARK  Name = 
REMARK  18 active torsions:
REMARK  status: ('A' for Active; 'I' for Inactive)
REMARK    1  A    between atoms: C_1  and  C_2
REMARK    2  A    between atoms: C_8  and  C_9
REMARK    3  A    between atoms: N_11  and  CA_12
REMARK    4  A    between atoms: CA_12  and  CB_13
REMARK    5  A    between atoms: CA_12  and  C_19
REMARK    6  A    between atoms: CB_13  and  CG_14
REMARK    7  A    between atoms: N_21  and  C_22
REMARK    8  A    between atoms: C_22  and  C_23
REMARK    9  A    between atoms: C_22  and  C_25
REMARK   10  A    between atoms: C_23  and  O_24
REMARK   11  A    between atoms: N_27  and  C_28
REMARK   12  A    between atoms: C_28  and  C_29
REMARK   13  A    between atoms: C_28  and  C_31
REMARK   14  A    between atoms: C_29  and  S_30
REMARK   15  A    between atoms: N_33  and  C_34
REMARK   16  A    between atoms: C_34  and  C_35
REMARK   17  A    between atoms: C_34  and  C_39
REMARK   18  A    between atoms: C_35  and  C_36
REMARK                            x       y       z     vdW  Elec       q    Type
REMARK                         _______ _______ _______ _____ _____    ______ ____
ROOT
ATOM      1  C   UNK A   2       0.520   1.085  -0.976  0.00  0.00    +0.000 C 
ENDROOT
BRANCH   1   4
ATOM      2  C   HIS A   1      -1.170   0.108   0.623  0.00  0.00    +0.000 C 
ATOM      3  O   HIS A   1      -0.294  -0.313   1.409  0.00  0.00    +0.000 OA
ATOM      4  N   UNK A   2      -0.732   0.129  -0.692  0.00  0.00    +0.000 N 
ATOM      5  H   UNK A   2      -1.160  -0.405  -1.399  0.00  0.00    +0.000 HD
BRANCH   2   6
ATOM      6  CA  HIS A   1      -2.652  -0.535   0.895  0.00  0.00    +0.000 C 
BRANCH   6   9
ATOM      7  C   UNK A   0      -4.632  -0.064  -0.449  0.00  0.00    +0.000 C 
ATOM      8  O   UNK A   0      -5.336  -0.558   0.487  0.00  0.00    +0.000 OA
ATOM      9  N   HIS A   1      -3.314   0.318  -0.289  0.00  0.00    +0.000 N 
ATOM     10  H   HIS A   1      -2.853   1.007  -0.820  0.00  0.00    +0.000 HD
BRANCH   7  18
ATOM     11  C   UNK A   0      -6.426   1.615   1.908  0.00  0.00    +0.000 C 
ATOM     12  C   UNK A   0      -6.583   1.579   1.034  0.00  0.00    +0.000 C 
ATOM     13  O   UNK A   0      -7.750   1.212   0.770  0.00  0.00    +0.000 OA
ATOM     14  N   UNK A   0      -5.636   1.986   0.043  0.00  0.00    +0.000 N 
ATOM     15  C   UNK A   0      -5.767   3.279  -0.608  0.00  0.00    +0.000 C 
ATOM     16  C   UNK A   0      -5.230   3.134  -1.998  0.00  0.00    +0.000 C 
ATOM     17  C   UNK A   0      -4.437   1.839  -1.978  0.00  0.00    +0.000 C 
ATOM     18  C   UNK A   0      -5.651   0.976  -1.206  0.00  0.00    +0.000 C 
ENDBRANCH   7  18
ENDBRANCH   6   9
BRANCH   6  19
ATOM     19  CB  HIS A   1      -2.365  -1.839  -0.119  0.00  0.00    +0.000 C 
BRANCH  19  20
ATOM     20  CG  HIS A   1      -3.318  -2.874   0.327  0.00  0.00    +0.000 A 
ATOM     21  CD2 HIS A   1      -3.480  -3.487   1.553  0.00  0.00    +0.000 A 
ATOM     22  NE2 HIS A   1      -4.673  -4.122   1.456  0.00  0.00    +0.000 N 
ATOM     23  CE1 HIS A   1      -5.042  -4.218   0.155  0.00  0.00    +0.000 A 
ATOM     24  ND1 HIS A   1      -4.003  -3.676  -0.527  0.00  0.00    +0.000 NA
ATOM     25  HE2 HIS A   1      -5.195  -4.464   2.218  0.00  0.00    +0.000 HD
ENDBRANCH  19  20
ENDBRANCH   6  19
ENDBRANCH   2   6
ENDBRANCH   1   4
BRANCH   1  26
ATOM     26  C   UNK A   2       1.371   0.605   0.359  0.00  0.00    +0.000 C 
ATOM     27  O   UNK A   2       2.141   1.554   0.728  0.00  0.00    +0.000 OA
ATOM     28  N   UNK A   2       2.208  -0.449  -0.174  0.00  0.00    +0.000 N 
ATOM     29  H   UNK A   2       2.155  -0.794  -1.095  0.00  0.00    +0.000 HD
BRANCH  28  30
ATOM     30  C   UNK A   2       3.235  -0.980   0.941  0.00  0.00    +0.000 C 
BRANCH  30  31
ATOM     31  C   UNK A   2       4.482  -0.205   0.230  0.00  0.00    +0.000 C 
ATOM     32  O   UNK A   2       4.684  -0.377  -0.951  0.00  0.00    +0.000 OA
ATOM     33  N   UNK A   2       5.505  -0.006   1.146  0.00  0.00    +0.000 N 
ATOM     34  H   UNK A   2       5.461  -0.345   2.069  0.00  0.00    +0.000 HD
BRANCH  33  35
ATOM     35  C   UNK A   2       6.764   0.816   0.593  0.00  0.00    +0.000 C 
BRANCH  35  36
ATOM     36  C   UNK A   2       5.829   1.920  -0.194  0.00  0.00    +0.000 C 
ATOM     37  N   UNK A   2       6.689   2.833  -0.890  0.00  0.00    +0.000 N 
ATOM     38  O   UNK A   2       4.990   2.459   0.570  0.00  0.00    +0.000 OA
ATOM     39  H   UNK A   2       7.374   2.490  -1.508  0.00  0.00    +0.000 HD
ATOM     40  H   UNK A   2       6.594   3.803  -0.749  0.00  0.00    +0.000 HD
ENDBRANCH  35  36
BRANCH  35  41
ATOM     41  C   UNK A   2       6.889  -0.145  -0.775  0.00  0.00    +0.000 C 
BRANCH  41  42
ATOM     42  C   UNK A   2       8.279  -0.669  -0.601  0.00  0.00    +0.000 C 
ATOM     43  N   UNK A   2       9.426   0.009  -1.098  0.00  0.00    +0.000 N 
ATOM     44  O   UNK A   2       8.507  -1.720   0.069  0.00  0.00    +0.000 OA
ATOM     45  H   UNK A   2       9.321   0.832  -1.627  0.00  0.00    +0.000 HD
ATOM     46  H   UNK A   2      10.326  -0.346  -0.914  0.00  0.00    +0.000 HD
ENDBRANCH  41  42
ENDBRANCH  35  41
ENDBRANCH  33  35
ENDBRANCH  30  31
BRANCH  30  47
ATOM     47  C   UNK A   2       3.511  -2.393   0.078  0.00  0.00    +0.000 C 
BRANCH  47  48
ATOM     48  S   UNK A   2       3.668  -3.667   1.353  0.00  0.00    +0.000 S 
ATOM     49  H   UNK A   2       4.675  -3.335   2.204  0.00  0.00    +0.000 HD
ENDBRANCH  47  48
ENDBRANCH  30  47
ENDBRANCH  28  30
ENDBRANCH   1  26
BRANCH   1  50
ATOM     50  C   UNK A   2      -0.224   2.403  -0.262  0.00  0.00    +0.000 C 
BRANCH  50  51
ATOM     51  O   UNK A   2       0.018   2.439   1.030  0.00  0.00    +0.000 OA
ATOM     52  H   UNK A   2      -0.328   1.635   1.447  0.00  0.00    +0.000 HD
ENDBRANCH  50  51
ENDBRANCH   1  50
TORSDOF 17
