REMARK  Name = 
REMARK  34 active torsions:
REMARK  status: ('A' for Active; 'I' for Inactive)
REMARK    1  A    between atoms: C_2  and  CA_8
REMARK    2  A    between atoms: C_5  and  C_10
REMARK    3  A    between atoms: CA_6  and  C_14
REMARK    4  A    between atoms: C_7  and  CA_40
REMARK    5  A    between atoms: C_9  and  C_11
REMARK    6  A    between atoms: C_10  and  N_13
REMARK    7  A    between atoms: C_10  and  C_58
REMARK    8  A    between atoms: C_12  and  C_15
REMARK    9  A    between atoms: C_15  and  N_19
REMARK   10  A    between atoms: C_15  and  C_24
REMARK   11  A    between atoms: N_18  and  C_45
REMARK   12  A    between atoms: C_22  and  C_24
REMARK   13  A    between atoms: C_23  and  CA_42
REMARK   14  A    between atoms: C_23  and  OXT_54
REMARK   15  A    between atoms: C_25  and  CA_48
REMARK   16  A    between atoms: N_26  and  CA_48
REMARK   17  A    between atoms: N_31  and  CA_42
REMARK   18  A    between atoms: N_31  and  C_53
REMARK   19  A    between atoms: CG_36  and  OD_61
REMARK   20  A    between atoms: CA_40  and  N_57
REMARK   21  A    between atoms: CA_40  and  CB_73
REMARK   22  A    between atoms: CA_42  and  CB_74
REMARK   23  A    between atoms: C_45  and  C_53
REMARK   24  A    between atoms: C_45  and  C_55
REMARK   25  A    between atoms: NE_46  and  CD_72
REMARK   26  A    between atoms: NE_47  and  CD_71
REMARK   27  A    between atoms: C_55  and  C_56
REMARK   28  A    between atoms: C_58  and  O_68
REMARK   29  A    between atoms: C_59  and  O_67
REMARK   30  A    between atoms: O_67  and  C_75
REMARK   31  A    between atoms: CD_71  and  CG_76
REMARK   32  A    between atoms: CD_72  and  CG_77
REMARK   33  A    between atoms: CB_73  and  CG_76
REMARK   34  A    between atoms: CB_74  and  CG_77
REMARK                            x       y       z     vdW  Elec       q    Type
REMARK                         _______ _______ _______ _____ _____    ______ ____
ROOT
ATOM      1  C   UNK A   5      -1.933   2.359   0.000  0.00  0.00    +0.000 C 
ATOM      2  N   UNK A   6      -1.218   2.772   0.000  0.00  0.00    +0.000 N 
ATOM      3  O   UNK A   5      -1.933   1.534   0.000  0.00  0.00    +0.000 OA
ATOM      4  H   UNK A   6      -1.218   3.756   0.000  0.00  0.00    +0.000 HD
ENDROOT
BRANCH   2   5
ATOM      5  C   UNK A   6      -0.504   2.359   0.000  0.00  0.00    +0.000 C 
BRANCH   5   7
ATOM      6  N   UNK A   0       0.211   3.597   0.000  0.00  0.00    +0.000 N 
ATOM      7  C   UNK A   6       0.211   2.772   0.000  0.00  0.00    +0.000 C 
ATOM      8  C   UNK A   0       0.878   4.082   0.000  0.00  0.00    +0.000 C 
ATOM      9  O   UNK A   6       0.925   2.359   0.000  0.00  0.00    +0.000 OA
ATOM     10  C   UNK A   0      -0.457   4.082   0.000  0.00  0.00    +0.000 C 
ATOM     11  C   UNK A   0       0.623   4.867   0.000  0.00  0.00    +0.000 C 
ATOM     12  C   UNK A   0      -0.202   4.867   0.000  0.00  0.00    +0.000 C 
BRANCH   8  13
ATOM     13  C   UNK A   0       1.663   3.827   0.000  0.00  0.00    +0.000 C 
ATOM     14  N   UNK A   0       2.276   4.379   0.000  0.00  0.00    +0.000 N 
ATOM     15  O   UNK A   0       1.834   3.020   0.000  0.00  0.00    +0.000 OA
ATOM     16  H   UNK A   0       2.071   5.342   0.000  0.00  0.00    +0.000 HD
BRANCH  14  17
ATOM     17  C   UNK A   0       3.060   4.124   0.000  0.00  0.00    +0.000 C 
BRANCH  17  18
ATOM     18  C   UNK A   0       3.674   4.676   0.000  0.00  0.00    +0.000 C 
BRANCH  18  19
ATOM     19  N   ARG A   1       4.458   4.421   0.000  0.00  0.00    +0.000 NA
ATOM     20  H   ARG A   1       4.670   3.423   0.000  0.00  0.00    +0.000 HD
BRANCH  19  21
ATOM     21  CA  ARG A   1       5.071   4.973   0.000  0.00  0.00    +0.000 C 
BRANCH  21  22
ATOM     22  C   ARG A   1       4.900   5.780   0.000  0.00  0.00    +0.000 C 
ATOM     23  O   ARG A   1       4.115   6.035   0.000  0.00  0.00    +0.000 OA
BRANCH  22  24
ATOM     24  OXT ARG A   1       5.513   6.332   0.000  0.00  0.00    +0.000 OA
ATOM     25  HXT ARG A   1       6.404   6.043   0.000  0.00  0.00    +0.000 HD
ENDBRANCH  22  24
ENDBRANCH  21  22
BRANCH  21  26
ATOM     26  CB  ARG A   1       5.856   4.718   0.000  0.00  0.00    +0.000 C 
BRANCH  26  27
ATOM     27  CG  ARG A   1       6.469   5.270   0.000  0.00  0.00    +0.000 C 
BRANCH  27  28
ATOM     28  CD  ARG A   1       7.253   5.015   0.000  0.00  0.00    +0.000 C 
BRANCH  28  31
ATOM     29  CZ  ARG A   1       8.651   5.312   0.000  0.00  0.00    +0.000 C 
ATOM     30  NH1 ARG A   1       9.264   5.864   0.000  0.00  0.00    +0.000 N 
ATOM     31  NE  ARG A   1       7.867   5.567   0.000  0.00  0.00    +0.000 NA
ATOM     32  NH2 ARG A   1       8.823   4.505   0.000  0.00  0.00    +0.000 N 
ATOM     33 HH11 ARG A   1      10.201   5.560   0.000  0.00  0.00    +0.000 HD
ATOM     34 HH12 ARG A   1       9.060   6.827   0.000  0.00  0.00    +0.000 HD
ATOM     35 HH21 ARG A   1       8.091   3.847   0.000  0.00  0.00    +0.000 HD
ATOM     36 HH22 ARG A   1       9.759   4.201   0.000  0.00  0.00    +0.000 HD
ENDBRANCH  28  31
ENDBRANCH  27  28
ENDBRANCH  26  27
ENDBRANCH  21  26
ENDBRANCH  19  21
ENDBRANCH  18  19
ENDBRANCH  17  18
BRANCH  17  37
ATOM     37  C   UNK A   0       3.232   3.317   0.000  0.00  0.00    +0.000 C 
BRANCH  37  38
ATOM     38  C   UNK A   0       4.016   3.062   0.000  0.00  0.00    +0.000 A 
ATOM     39  C   UNK A   0       5.586   2.552   0.000  0.00  0.00    +0.000 A 
ATOM     40  C   UNK A   0       4.188   2.255   0.000  0.00  0.00    +0.000 A 
ATOM     41  C   UNK A   0       4.630   3.614   0.000  0.00  0.00    +0.000 A 
ATOM     42  C   UNK A   0       5.414   3.359   0.000  0.00  0.00    +0.000 A 
ATOM     43  C   UNK A   0       4.973   2.000   0.000  0.00  0.00    +0.000 A 
BRANCH  39  44
ATOM     44  O   UNK A   0       6.370   2.297   0.000  0.00  0.00    +0.000 OA
ATOM     45  C   UNK A   0       6.542   1.490   0.000  0.00  0.00    +0.000 C 
ENDBRANCH  39  44
ENDBRANCH  37  38
ENDBRANCH  17  37
ENDBRANCH  14  17
ENDBRANCH   8  13
ENDBRANCH   5   7
BRANCH   5  46
ATOM     46  C   UNK A   6      -0.504   1.534   0.000  0.00  0.00    +0.000 C 
BRANCH  46  47
ATOM     47  O   UNK A   6      -1.218   1.122   0.000  0.00  0.00    +0.000 OA
ATOM     48  H   UNK A   6      -2.058   1.607   0.000  0.00  0.00    +0.000 HD
ENDBRANCH  46  47
ENDBRANCH   5  46
ENDBRANCH   2   5
BRANCH   1  49
ATOM     49  C   UNK A   5      -2.647   2.772   0.000  0.00  0.00    +0.000 C 
BRANCH  49  50
ATOM     50  N   UNK A   5      -3.362   2.359   0.000  0.00  0.00    +0.000 N 
ATOM     51  C   GLY A   4      -3.362   1.534   0.000  0.00  0.00    +0.000 C 
ATOM     52  O   GLY A   4      -2.647   1.122   0.000  0.00  0.00    +0.000 OA
ATOM     53  H   UNK A   5      -4.214   2.852   0.000  0.00  0.00    +0.000 HD
BRANCH  51  54
ATOM     54  CA  GLY A   4      -4.076   1.122   0.000  0.00  0.00    +0.000 C 
BRANCH  54  56
ATOM     55  C   HYP A   3      -5.505   1.122   0.000  0.00  0.00    +0.000 C 
ATOM     56  N   GLY A   4      -4.791   1.534   0.000  0.00  0.00    +0.000 N 
ATOM     57  O   HYP A   3      -5.505   0.297   0.000  0.00  0.00    +0.000 OA
ATOM     58  H   GLY A   4      -4.791   2.519   0.000  0.00  0.00    +0.000 HD
BRANCH  55  61
ATOM     59  N   HYP A   3      -6.973   1.199   0.000  0.00  0.00    +0.000 N 
ATOM     60  C   PRO A   2      -7.145   0.392   0.000  0.00  0.00    +0.000 C 
ATOM     61  CA  HYP A   3      -6.220   1.534   0.000  0.00  0.00    +0.000 C 
ATOM     62  CD  HYP A   3      -7.525   1.812   0.000  0.00  0.00    +0.000 C 
ATOM     63  CB  HYP A   3      -6.306   2.355   0.000  0.00  0.00    +0.000 C 
ATOM     64  O   PRO A   2      -6.532  -0.160   0.000  0.00  0.00    +0.000 OA
ATOM     65  CG  HYP A   3      -7.113   2.526   0.000  0.00  0.00    +0.000 C 
BRANCH  60  68
ATOM     66  N   PRO A   2      -8.184  -0.648   0.000  0.00  0.00    +0.000 N 
ATOM     67  C   ARG A   1      -7.699  -1.315   0.000  0.00  0.00    +0.000 C 
ATOM     68  CA  PRO A   2      -7.929   0.137   0.000  0.00  0.00    +0.000 C 
ATOM     69  O   ARG A   1      -6.879  -1.229   0.000  0.00  0.00    +0.000 OA
ATOM     70  CD  PRO A   2      -9.009  -0.648   0.000  0.00  0.00    +0.000 C 
ATOM     71  CB  PRO A   2      -8.597   0.622   0.000  0.00  0.00    +0.000 C 
ATOM     72  CG  PRO A   2      -9.264   0.137   0.000  0.00  0.00    +0.000 C 
BRANCH  67  73
ATOM     73  CA  ARG A   1      -8.035  -2.069   0.000  0.00  0.00    +0.000 C 
BRANCH  73  74
ATOM     74  N   ARG A   1      -8.855  -2.155   0.000  0.00  0.00    +0.000 NA
ATOM     75  H1  ARG A   1      -9.455  -1.330   0.000  0.00  0.00    +0.000 HD
ATOM     76  H2  ARG A   1      -9.271  -3.087   0.000  0.00  0.00    +0.000 HD
ENDBRANCH  73  74
BRANCH  73  77
ATOM     77  CB  ARG A   1      -7.550  -2.736   0.000  0.00  0.00    +0.000 C 
BRANCH  77  78
ATOM     78  CG  ARG A   1      -7.886  -3.490   0.000  0.00  0.00    +0.000 C 
BRANCH  78  79
ATOM     79  CD  ARG A   1      -7.401  -4.157   0.000  0.00  0.00    +0.000 C 
BRANCH  79  82
ATOM     80  CZ  ARG A   1      -7.251  -5.578   0.000  0.00  0.00    +0.000 C 
ATOM     81  NH1 ARG A   1      -6.431  -5.492   0.000  0.00  0.00    +0.000 N 
ATOM     82  NE  ARG A   1      -7.736  -4.911   0.000  0.00  0.00    +0.000 NA
ATOM     83  NH2 ARG A   1      -7.587  -6.332   0.000  0.00  0.00    +0.000 N 
ATOM     84 HH11 ARG A   1      -5.852  -6.289   0.000  0.00  0.00    +0.000 HD
ATOM     85 HH12 ARG A   1      -6.030  -4.593   0.000  0.00  0.00    +0.000 HD
ATOM     86 HH21 ARG A   1      -8.566  -6.435   0.000  0.00  0.00    +0.000 HD
ATOM     87 HH22 ARG A   1      -7.008  -7.129   0.000  0.00  0.00    +0.000 HD
ENDBRANCH  79  82
ENDBRANCH  78  79
ENDBRANCH  77  78
ENDBRANCH  73  77
ENDBRANCH  67  73
ENDBRANCH  60  68
BRANCH  65  88
ATOM     88  OD  HYP A   3      -7.448   3.280   0.000  0.00  0.00    +0.000 OA
ATOM     89  HD  HYP A   3      -6.878   4.065   0.000  0.00  0.00    +0.000 HD
ENDBRANCH  65  88
ENDBRANCH  55  61
ENDBRANCH  54  56
ENDBRANCH  51  54
ENDBRANCH  49  50
BRANCH  49  90
ATOM     90  C   UNK A   5      -2.647   3.597   0.000  0.00  0.00    +0.000 C 
BRANCH  90  91
ATOM     91  C   UNK A   5      -3.362   4.009   0.000  0.00  0.00    +0.000 A 
ATOM     92  S   UNK A   5      -3.448   4.830   0.000  0.00  0.00    +0.000 S 
ATOM     93  C   UNK A   5      -4.255   5.001   0.000  0.00  0.00    +0.000 A 
ATOM     94  C   UNK A   5      -4.115   3.674   0.000  0.00  0.00    +0.000 A 
ATOM     95  C   UNK A   5      -4.667   4.287   0.000  0.00  0.00    +0.000 A 
ENDBRANCH  90  91
ENDBRANCH  49  90
ENDBRANCH   1  49
TORSDOF 33
