REMARK  Name = 
REMARK  37 active torsions:
REMARK  status: ('A' for Active; 'I' for Inactive)
REMARK    1  A    between atoms: C_7  and  C_10
REMARK    2  A    between atoms: C_10  and  C_17
REMARK    3  A    between atoms: C_11  and  C_12
REMARK    4  A    between atoms: C_12  and  N_14
REMARK    5  A    between atoms: C_12  and  C_68
REMARK    6  A    between atoms: C_16  and  C_17
REMARK    7  A    between atoms: C_17  and  N_18
REMARK    8  A    between atoms: C_19  and  C_20
REMARK    9  A    between atoms: C_20  and  C_22
REMARK   10  A    between atoms: C_20  and  N_23
REMARK   11  A    between atoms: C_22  and  C_24
REMARK   12  A    between atoms: C_29  and  O_30
REMARK   13  A    between atoms: C_31  and  C_32
REMARK   14  A    between atoms: C_32  and  N_33
REMARK   15  A    between atoms: C_32  and  C_34
REMARK   16  A    between atoms: C_34  and  O_95
REMARK   17  A    between atoms: C_36  and  C_37
REMARK   18  A    between atoms: C_37  and  C_38
REMARK   19  A    between atoms: C_37  and  N_49
REMARK   20  A    between atoms: C_38  and  C_39
REMARK   21  A    between atoms: C_50  and  C_51
REMARK   22  A    between atoms: C_51  and  C_53
REMARK   23  A    between atoms: C_51  and  N_59
REMARK   24  A    between atoms: C_53  and  C_54
REMARK   25  A    between atoms: C_60  and  C_62
REMARK   26  A    between atoms: C_68  and  C_69
REMARK   27  A    between atoms: C_69  and  C_70
REMARK   28  A    between atoms: C_69  and  C_71
REMARK   29  A    between atoms: N_72  and  C_73
REMARK   30  A    between atoms: C_73  and  C_74
REMARK   31  A    between atoms: C_73  and  C_77
REMARK   32  A    between atoms: C_77  and  C_78
REMARK   33  A    between atoms: C_78  and  C_79
REMARK   34  A    between atoms: C_79  and  N_80
REMARK   35  A    between atoms: C_86  and  C_90
REMARK   36  A    between atoms: C_89  and  N_91
REMARK   37  A    between atoms: C_89  and  C_92
REMARK                            x       y       z     vdW  Elec       q    Type
REMARK                         _______ _______ _______ _____ _____    ______ ____
ROOT
ATOM      1  N   UNK     1       0.402  -0.745   0.000  0.00  0.00    +0.000 N 
ATOM      2  C   UNK     1      -0.313  -1.158   0.000  0.00  0.00    +0.000 C 
ATOM      3  O   UNK     1      -0.313  -1.983   0.000  0.00  0.00    +0.000 OA
ATOM      4  H   UNK     1       0.402   0.239   0.000  0.00  0.00    +0.000 HD
ENDROOT
BRANCH   1   5
ATOM      5  C   UNK     1       1.116  -1.158   0.000  0.00  0.00    +0.000 C 
BRANCH   5   8
ATOM      6  N   UNK     1       2.545  -1.158   0.000  0.00  0.00    +0.000 N 
ATOM      7  O   UNK     1       1.831   0.080   0.000  0.00  0.00    +0.000 OA
ATOM      8  C   UNK     1       1.831  -0.745   0.000  0.00  0.00    +0.000 C 
ATOM      9  H   UNK     1       2.545  -2.142   0.000  0.00  0.00    +0.000 HD
BRANCH   6  10
ATOM     10  C   UNK     1       3.260  -0.745   0.000  0.00  0.00    +0.000 C 
BRANCH  10  11
ATOM     11  C   UNK     1       3.260   0.080   0.000  0.00  0.00    +0.000 C 
ATOM     12  O   UNK     1       2.545   0.492   0.000  0.00  0.00    +0.000 OA
ATOM     13  N   UNK     1       3.974   0.492   0.000  0.00  0.00    +0.000 N 
ATOM     14  H   UNK     1       4.827  -0.000   0.000  0.00  0.00    +0.000 HD
BRANCH  13  15
ATOM     15  C   UNK     1       3.974   1.317   0.000  0.00  0.00    +0.000 C 
BRANCH  15  16
ATOM     16  C   UNK     1       4.689   1.730   0.000  0.00  0.00    +0.000 C 
ATOM     17  N   UNK     1       4.689   2.555   0.000  0.00  0.00    +0.000 N 
ATOM     18  O   UNK     1       5.403   1.317   0.000  0.00  0.00    +0.000 OA
ATOM     19  C   UNK     1       4.021   3.039   0.000  0.00  0.00    +0.000 C 
ATOM     20  C   UNK     1       4.275   3.824   0.000  0.00  0.00    +0.000 C 
ATOM     21  C   UNK     1       5.356   3.040   0.000  0.00  0.00    +0.000 C 
ATOM     22  C   UNK     1       5.100   3.825   0.000  0.00  0.00    +0.000 C 
BRANCH  21  24
ATOM     23  O   UNK     1       6.785   3.040   0.000  0.00  0.00    +0.000 OA
ATOM     24  C   UNK     1       6.070   2.628   0.000  0.00  0.00    +0.000 C 
ATOM     25  N   UNK     1       6.070   1.803   0.000  0.00  0.00    +0.000 N 
ATOM     26  H   UNK     1       5.217   1.310   0.000  0.00  0.00    +0.000 HD
BRANCH  25  27
ATOM     27  C   UNK     1       6.785   1.390   0.000  0.00  0.00    +0.000 C 
BRANCH  27  28
ATOM     28  C   UNK     1       6.785   0.565   0.000  0.00  0.00    +0.000 C 
ATOM     29  N   UNK     1       7.499   0.153   0.000  0.00  0.00    +0.000 N 
ATOM     30  O   UNK     1       6.070   0.153   0.000  0.00  0.00    +0.000 OA
ATOM     31  H   UNK     1       7.499  -0.832   0.000  0.00  0.00    +0.000 HD
ATOM     32  H   UNK     1       8.352   0.645   0.000  0.00  0.00    +0.000 HD
ENDBRANCH  27  28
ENDBRANCH  25  27
ENDBRANCH  21  24
ENDBRANCH  15  16
BRANCH  15  33
ATOM     33  C   UNK     1       3.260   1.730   0.000  0.00  0.00    +0.000 C 
BRANCH  33  34
ATOM     34  C   UNK     1       3.260   2.555   0.000  0.00  0.00    +0.000 C 
BRANCH  34  35
ATOM     35  C   UNK     1       2.545   2.967   0.000  0.00  0.00    +0.000 C 
BRANCH  35  36
ATOM     36  N   UNK     1       1.831   2.555   0.000  0.00  0.00    +0.000 N 
ATOM     37  C   UNK     1       1.116   2.967   0.000  0.00  0.00    +0.000 C 
ATOM     38  N   UNK     1       0.402   2.555   0.000  0.00  0.00    +0.000 N 
ATOM     39  N   UNK     1       1.116   3.792   0.000  0.00  0.00    +0.000 NA
ATOM     40  H   UNK     1       1.831   1.570   0.000  0.00  0.00    +0.000 HD
ATOM     41  H   UNK     1      -0.451   3.047   0.000  0.00  0.00    +0.000 HD
ATOM     42  H   UNK     1       0.402   1.570   0.000  0.00  0.00    +0.000 HD
ATOM     43  H   UNK     1       1.969   4.285   0.000  0.00  0.00    +0.000 HD
ENDBRANCH  35  36
ENDBRANCH  34  35
ENDBRANCH  33  34
ENDBRANCH  15  33
ENDBRANCH  13  15
ENDBRANCH  10  11
BRANCH  10  44
ATOM     44  C   UNK     1       3.974  -1.158   0.000  0.00  0.00    +0.000 C 
BRANCH  44  45
ATOM     45  C   UNK     1       4.689  -0.745   0.000  0.00  0.00    +0.000 C 
ATOM     46  C   UNK     1       5.403  -1.158   0.000  0.00  0.00    +0.000 C 
ATOM     47  C   UNK     1       4.689   0.080   0.000  0.00  0.00    +0.000 C 
ENDBRANCH  44  45
ENDBRANCH  10  44
ENDBRANCH   6  10
ENDBRANCH   5   8
BRANCH   5  48
ATOM     48  C   UNK     1       1.116  -1.983   0.000  0.00  0.00    +0.000 C 
BRANCH  48  55
ATOM     49  C   UNK     1      -0.286  -2.942   0.000  0.00  0.00    +0.000 A 
ATOM     50  C   UNK     1      -0.286  -3.767   0.000  0.00  0.00    +0.000 A 
ATOM     51  C   UNK     1      -1.001  -2.529   0.000  0.00  0.00    +0.000 A 
ATOM     52  C   UNK     1      -1.001  -4.179   0.000  0.00  0.00    +0.000 A 
ATOM     53  C   UNK     1      -1.715  -2.942   0.000  0.00  0.00    +0.000 A 
ATOM     54  C   UNK     1      -1.715  -3.767   0.000  0.00  0.00    +0.000 A 
ATOM     55  C   UNK     1       0.498  -2.687   0.000  0.00  0.00    +0.000 A 
ATOM     56  C   UNK     1       0.983  -3.354   0.000  0.00  0.00    +0.000 A 
ATOM     57  N   UNK     1       0.498  -4.022   0.000  0.00  0.00    +0.000 N 
ATOM     58  H   UNK     1       0.802  -4.958   0.000  0.00  0.00    +0.000 HD
ENDBRANCH  48  55
ENDBRANCH   5  48
ENDBRANCH   1   5
BRANCH   2  59
ATOM     59  C   UNK     1      -1.027  -0.745   0.000  0.00  0.00    +0.000 C 
BRANCH  59  60
ATOM     60  N   UNK     1      -1.742  -1.158   0.000  0.00  0.00    +0.000 N 
ATOM     61  C   UNK     1      -2.456  -0.745   0.000  0.00  0.00    +0.000 C 
ATOM     62  O   UNK     1      -2.456   0.080   0.000  0.00  0.00    +0.000 OA
ATOM     63  H   UNK     1      -1.742  -2.142   0.000  0.00  0.00    +0.000 HD
BRANCH  61  64
ATOM     64  C   UNK     1      -3.171  -1.158   0.000  0.00  0.00    +0.000 C 
BRANCH  64  65
ATOM     65  N   UNK     1      -3.885  -0.745   0.000  0.00  0.00    +0.000 N 
ATOM     66  C   UNK     1      -4.600  -1.157   0.000  0.00  0.00    +0.000 C 
ATOM     67  O   UNK     1      -4.600  -1.982   0.000  0.00  0.00    +0.000 OA
ATOM     68  H   UNK     1      -3.885   0.239   0.000  0.00  0.00    +0.000 HD
BRANCH  66  69
ATOM     69  C   UNK     1      -5.314  -0.745   0.000  0.00  0.00    +0.000 C 
BRANCH  69  70
ATOM     70  N   UNK     1      -5.314   0.080   0.000  0.00  0.00    +0.000 N 
ATOM     71  C   UNK     1      -6.028   0.492   0.000  0.00  0.00    +0.000 C 
ATOM     72  O   UNK     1      -6.743   0.080   0.000  0.00  0.00    +0.000 OA
ATOM     73  H   UNK     1      -4.461   0.572   0.000  0.00  0.00    +0.000 HD
BRANCH  71  74
ATOM     74  C   UNK     1      -6.028   1.317   0.000  0.00  0.00    +0.000 C 
BRANCH  74  75
ATOM     75  N   UNK     1      -6.774   1.671   0.000  0.00  0.00    +0.000 N 
ATOM     76  C   UNK     1      -6.781   2.682   0.000  0.00  0.00    +0.000 C 
ATOM     77  O   UNK     1      -7.499   3.089   0.000  0.00  0.00    +0.000 OA
ATOM     78  H   UNK     1      -7.604   1.141   0.000  0.00  0.00    +0.000 HD
BRANCH  76  79
ATOM     79  C   UNK     1      -6.070   3.099   0.000  0.00  0.00    +0.000 C 
ATOM     80  C   UNK     1      -6.070   3.924   0.000  0.00  0.00    +0.000 C 
ATOM     81  C   UNK     1      -5.285   4.179   0.000  0.00  0.00    +0.000 C 
ATOM     82  C   UNK     1      -4.800   3.512   0.000  0.00  0.00    +0.000 C 
ATOM     83  N   UNK     1      -5.285   2.844   0.000  0.00  0.00    +0.000 N 
ATOM     84  O   UNK     1      -3.975   3.512   0.000  0.00  0.00    +0.000 OA
ATOM     85  H   UNK     1      -4.981   1.908   0.000  0.00  0.00    +0.000 HD
ENDBRANCH  76  79
ENDBRANCH  74  75
BRANCH  74  86
ATOM     86  C   UNK     1      -5.314   1.730   0.000  0.00  0.00    +0.000 C 
BRANCH  86  87
ATOM     87  C   UNK     1      -4.599   1.317   0.000  0.00  0.00    +0.000 A 
ATOM     88  N   UNK     1      -3.932   1.802   0.000  0.00  0.00    +0.000 NA
ATOM     89  C   UNK     1      -4.345   0.532   0.000  0.00  0.00    +0.000 A 
ATOM     90  C   UNK     1      -3.265   1.316   0.000  0.00  0.00    +0.000 A 
ATOM     91  N   UNK     1      -3.520   0.532   0.000  0.00  0.00    +0.000 N 
ATOM     92  H   UNK     1      -2.942  -0.265   0.000  0.00  0.00    +0.000 HD
ENDBRANCH  86  87
ENDBRANCH  74  86
ENDBRANCH  71  74
ENDBRANCH  69  70
BRANCH  69  93
ATOM     93  C   UNK     1      -6.029  -1.157   0.000  0.00  0.00    +0.000 C 
BRANCH  93  94
ATOM     94  C   UNK     1      -6.029  -1.982   0.000  0.00  0.00    +0.000 A 
ATOM     95  C   UNK     1      -6.696  -2.467   0.000  0.00  0.00    +0.000 A 
ATOM     96  N   UNK     1      -6.442  -3.252   0.000  0.00  0.00    +0.000 N 
ATOM     97  C   UNK     1      -5.362  -2.468   0.000  0.00  0.00    +0.000 A 
ATOM     98  C   UNK     1      -5.617  -3.252   0.000  0.00  0.00    +0.000 A 
ATOM     99  C   UNK     1      -4.001  -2.906   0.000  0.00  0.00    +0.000 A 
ATOM    100  C   UNK     1      -4.254  -3.691   0.000  0.00  0.00    +0.000 A 
ATOM    101  C   UNK     1      -4.555  -2.294   0.000  0.00  0.00    +0.000 A 
ATOM    102  C   UNK     1      -5.061  -3.865   0.000  0.00  0.00    +0.000 A 
ATOM    103  H   UNK     1      -7.021  -4.048   0.000  0.00  0.00    +0.000 HD
ENDBRANCH  93  94
ENDBRANCH  69  93
ENDBRANCH  66  69
ENDBRANCH  64  65
BRANCH  64 104
ATOM    104  C   UNK     1      -3.171  -1.983   0.000  0.00  0.00    +0.000 C 
BRANCH 104 105
ATOM    105  O   UNK     1      -2.456  -2.395   0.000  0.00  0.00    +0.000 OA
ATOM    106  H   UNK     1      -2.456  -3.365   0.000  0.00  0.00    +0.000 HD
ENDBRANCH 104 105
ENDBRANCH  64 104
ENDBRANCH  61  64
ENDBRANCH  59  60
BRANCH  59 107
ATOM    107  C   UNK     1      -1.027   0.080   0.000  0.00  0.00    +0.000 C 
BRANCH 107 108
ATOM    108  C   UNK     1      -0.313   0.492   0.000  0.00  0.00    +0.000 A 
ATOM    109  C   UNK     1      -0.313   1.317   0.000  0.00  0.00    +0.000 A 
ATOM    110  C   UNK     1       0.402   0.080   0.000  0.00  0.00    +0.000 A 
ATOM    111  C   UNK     1       0.402   1.730   0.000  0.00  0.00    +0.000 A 
ATOM    112  C   UNK     1       1.116   0.492   0.000  0.00  0.00    +0.000 A 
ATOM    113  C   UNK     1       1.116   1.317   0.000  0.00  0.00    +0.000 A 
BRANCH 113 114
ATOM    114  O   UNK     1       1.831   1.730   0.000  0.00  0.00    +0.000 OA
ATOM    115  H   UNK     1       2.642   1.261   0.000  0.00  0.00    +0.000 HD
ENDBRANCH 113 114
ENDBRANCH 107 108
ENDBRANCH  59 107
ENDBRANCH   2  59
TORSDOF 35
