REMARK  Name = 25113128
REMARK  8 active torsions:
REMARK  status: ('A' for Active; 'I' for Inactive)
REMARK    1  A    between atoms: N_4  and  C_16
REMARK    2  A    between atoms: N_5  and  C_14
REMARK    3  A    between atoms: C_8  and  C_13
REMARK    4  A    between atoms: C_12  and  C_14
REMARK    5  A    between atoms: C_14  and  C_15
REMARK    6  A    between atoms: C_15  and  C_17
REMARK    7  A    between atoms: C_16  and  C_18
REMARK    8  A    between atoms: C_23  and  C_24
REMARK                            x       y       z     vdW  Elec       q    Type
REMARK                         _______ _______ _______ _____ _____    ______ ____
ROOT
ATOM      1  O   UNL     1       0.755  -0.050  -1.152  0.00  0.00    +0.000 OA
ATOM      2  N   UNL     1      -0.066  -1.292   0.637  0.00  0.00    +0.000 N 
ATOM      3  C   UNL     1       0.763  -0.361   0.036  0.00  0.00    +0.000 C 
ATOM      4  H   UNL     1       0.006  -1.450   1.638  0.00  0.00    +0.000 HD
ENDROOT
BRANCH   3   7
ATOM      5  O   UNL     1       3.790  -1.474   0.121  0.00  0.00    +0.000 OA
ATOM      6  N   UNL     1       2.900   0.656   0.279  0.00  0.00    +0.000 N 
ATOM      7  C   UNL     1       1.699   0.281   1.015  0.00  0.00    +0.000 C 
ATOM      8  C   UNL     1       1.145   1.597   1.548  0.00  0.00    +0.000 C 
ATOM      9  C   UNL     1       1.608   2.622   0.515  0.00  0.00    +0.000 C 
ATOM     10  C   UNL     1       2.976   2.104   0.098  0.00  0.00    +0.000 C 
ATOM     11  C   UNL     1       3.890  -0.258  -0.046  0.00  0.00    +0.000 C 
BRANCH  11  12
ATOM     12  C   UNL     1       5.141   0.328  -0.650  0.00  0.00    +0.000 C 
BRANCH  12  13
ATOM     13  N   UNL     1       4.873   0.417  -2.079  0.00  0.00    +0.000 NA
ATOM     14  H   UNL     1       5.692   0.789  -2.559  0.00  0.00    +0.000 HD
ATOM     15  H   UNL     1       4.114   1.067  -2.267  0.00  0.00    +0.000 HD
ENDBRANCH  12  13
BRANCH  12  16
ATOM     16  C   UNL     1       6.354  -0.553  -0.364  0.00  0.00    +0.000 C 
ATOM     17  C   UNL     1       6.616  -0.717   1.128  0.00  0.00    +0.000 C 
ENDBRANCH  12  16
ENDBRANCH  11  12
ENDBRANCH   3   7
BRANCH   2  18
ATOM     18  C   UNL     1      -1.074  -2.035  -0.084  0.00  0.00    +0.000 C 
BRANCH  18  19
ATOM     19  C   UNL     1      -2.396  -1.322  -0.096  0.00  0.00    +0.000 A 
ATOM     20  C   UNL     1      -3.192  -1.312   1.049  0.00  0.00    +0.000 A 
ATOM     21  C   UNL     1      -2.827  -0.672  -1.252  0.00  0.00    +0.000 A 
ATOM     22  C   UNL     1      -4.421  -0.651   1.038  0.00  0.00    +0.000 A 
ATOM     23  C   UNL     1      -4.056  -0.011  -1.263  0.00  0.00    +0.000 A 
ATOM     24  C   UNL     1      -4.853  -0.001  -0.118  0.00  0.00    +0.000 A 
BRANCH  24  27
ATOM     25  N   UNL     1      -6.951   0.716   0.999  0.00  0.00    +0.000 N 
ATOM     26  N   UNL     1      -6.542   1.300  -1.227  0.00  0.00    +0.000 NA
ATOM     27  C   UNL     1      -6.133   0.688  -0.129  0.00  0.00    +0.000 C 
ATOM     28  H   UNL     1      -6.715   0.274   1.878  0.00  0.00    +0.000 HD
ATOM     29  H   UNL     1      -7.842   1.201   0.971  0.00  0.00    +0.000 HD
ATOM     30  H   UNL     1      -7.459   1.721  -1.039  0.00  0.00    +0.000 HD
ENDBRANCH  24  27
ENDBRANCH  18  19
ENDBRANCH   2  18
TORSDOF 7
