REMARK  Name = 444224
REMARK  14 active torsions:
REMARK  status: ('A' for Active; 'I' for Inactive)
REMARK    1  A    between atoms: O_3  and  C_21
REMARK    2  A    between atoms: O_3  and  C_29
REMARK    3  A    between atoms: N_6  and  N_8
REMARK    4  A    between atoms: N_7  and  C_16
REMARK    5  A    between atoms: N_8  and  C_19
REMARK    6  A    between atoms: N_9  and  C_27
REMARK    7  A    between atoms: C_10  and  C_15
REMARK    8  A    between atoms: C_14  and  C_16
REMARK    9  A    between atoms: C_16  and  C_17
REMARK   10  A    between atoms: C_17  and  C_18
REMARK   11  A    between atoms: C_19  and  C_20
REMARK   12  A    between atoms: C_20  and  C_24
REMARK   13  A    between atoms: C_24  and  C_27
REMARK   14  A    between atoms: C_29  and  C_30
REMARK                            x       y       z     vdW  Elec       q    Type
REMARK                         _______ _______ _______ _____ _____    ______ ____
ROOT
ATOM      1  O   UNL     1       0.301  -0.153   1.273  0.00  0.00    +0.000 OA
ATOM      2  N   UNL     1      -0.040  -1.983  -0.103  0.00  0.00    +0.000 N 
ATOM      3  C   UNL     1       1.219  -2.653   0.197  0.00  0.00    +0.000 C 
ATOM      4  C   UNL     1       1.036  -4.072  -0.329  0.00  0.00    +0.000 C 
ATOM      5  C   UNL     1       0.052  -3.900  -1.483  0.00  0.00    +0.000 C 
ATOM      6  C   UNL     1      -0.867  -2.790  -0.996  0.00  0.00    +0.000 C 
ATOM      7  C   UNL     1      -0.426  -0.809   0.525  0.00  0.00    +0.000 C 
ENDROOT
BRANCH   3  10
ATOM      8  O   UNL     1       2.074  -1.344  -1.606  0.00  0.00    +0.000 OA
ATOM      9  N   UNL     1       3.508  -1.959   0.122  0.00  0.00    +0.000 N 
ATOM     10  C   UNL     1       2.297  -1.920  -0.543  0.00  0.00    +0.000 C 
ATOM     11  H   UNL     1       3.642  -2.473   0.988  0.00  0.00    +0.000 HD
BRANCH   9  12
ATOM     12  N   UNL     1       4.597  -1.300  -0.426  0.00  0.00    +0.000 NA
ATOM     13  H   UNL     1       5.313  -2.005  -0.599  0.00  0.00    +0.000 HD
BRANCH  12  14
ATOM     14  C   UNL     1       5.104  -0.302   0.506  0.00  0.00    +0.000 C 
BRANCH  14  15
ATOM     15  C   UNL     1       6.347   0.378  -0.069  0.00  0.00    +0.000 C 
BRANCH  15  16
ATOM     16  C   UNL     1       6.900   1.426   0.903  0.00  0.00    +0.000 C 
BRANCH  16  17
ATOM     17  C   UNL     1       8.163   2.124   0.396  0.00  0.00    +0.000 C 
BRANCH  17  18
ATOM     18  N   UNL     1       8.665   3.116   1.338  0.00  0.00    +0.000 NA
ATOM     19  H   UNL     1       8.892   2.664   2.223  0.00  0.00    +0.000 HD
ATOM     20  H   UNL     1       9.537   3.508   0.985  0.00  0.00    +0.000 HD
ENDBRANCH  17  18
ENDBRANCH  16  17
ENDBRANCH  15  16
ENDBRANCH  14  15
ENDBRANCH  12  14
ENDBRANCH   9  12
ENDBRANCH   3  10
BRANCH   7  21
ATOM     21  C   UNL     1      -1.830  -0.346   0.230  0.00  0.00    +0.000 C 
BRANCH  21  23
ATOM     22  O   UNL     1      -2.220   1.438  -2.030  0.00  0.00    +0.000 OA
ATOM     23  N   UNL     1      -1.719   1.084   0.210  0.00  0.00    +0.000 N 
ATOM     24  C   UNL     1      -1.922   1.862  -0.918  0.00  0.00    +0.000 C 
ATOM     25  H   UNL     1      -1.450   1.560   1.066  0.00  0.00    +0.000 HD
BRANCH  24  26
ATOM     26  O   UNL     1      -1.744   3.182  -0.614  0.00  0.00    +0.000 OA
BRANCH  26  27
ATOM     27  C   UNL     1      -1.925   4.102  -1.696  0.00  0.00    +0.000 C 
ATOM     28  C   UNL     1      -1.691   5.510  -1.191  0.00  0.00    +0.000 C 
ENDBRANCH  26  27
ENDBRANCH  24  26
ENDBRANCH  21  23
BRANCH  21  29
ATOM     29  C   UNL     1      -2.788  -0.853   1.300  0.00  0.00    +0.000 C 
BRANCH  29  30
ATOM     30  C   UNL     1      -4.205  -0.396   1.058  0.00  0.00    +0.000 A 
ATOM     31  C   UNL     1      -4.652   0.808   1.602  0.00  0.00    +0.000 A 
ATOM     32  C   UNL     1      -5.069  -1.177   0.289  0.00  0.00    +0.000 A 
ATOM     33  C   UNL     1      -5.962   1.231   1.378  0.00  0.00    +0.000 A 
ATOM     34  C   UNL     1      -6.379  -0.753   0.065  0.00  0.00    +0.000 A 
ATOM     35  C   UNL     1      -6.825   0.451   0.610  0.00  0.00    +0.000 A 
ENDBRANCH  29  30
ENDBRANCH  21  29
ENDBRANCH   7  21
TORSDOF 13
