REMARK  Name = 5289332
REMARK  19 active torsions:
REMARK  status: ('A' for Active; 'I' for Inactive)
REMARK    1  A    between atoms: O_1  and  C_11
REMARK    2  A    between atoms: O_2  and  C_16
REMARK    3  A    between atoms: O_2  and  C_22
REMARK    4  A    between atoms: O_4  and  C_21
REMARK    5  A    between atoms: O_4  and  C_23
REMARK    6  A    between atoms: N_6  and  C_8
REMARK    7  A    between atoms: N_7  and  C_12
REMARK    8  A    between atoms: C_8  and  C_9
REMARK    9  A    between atoms: C_8  and  C_11
REMARK   10  A    between atoms: C_9  and  C_10
REMARK   11  A    between atoms: C_10  and  C_17
REMARK   12  A    between atoms: C_10  and  C_18
REMARK   13  A    between atoms: C_11  and  C_16
REMARK   14  A    between atoms: C_12  and  C_13
REMARK   15  A    between atoms: C_12  and  C_14
REMARK   16  A    between atoms: C_13  and  C_15
REMARK   17  A    between atoms: C_15  and  C_19
REMARK   18  A    between atoms: C_15  and  C_20
REMARK   19  A    between atoms: C_23  and  C_24
REMARK                            x       y       z     vdW  Elec       q    Type
REMARK                         _______ _______ _______ _____ _____    ______ ____
ROOT
ATOM      1  C   UNL     1       0.241   1.249  -0.306  0.00  0.00    +0.000 C 
ENDROOT
BRANCH   1   4
ATOM      2  O   UNL     1       0.781  -0.213   1.551  0.00  0.00    +0.000 OA
ATOM      3  N   UNL     1       2.213  -0.141  -0.275  0.00  0.00    +0.000 N 
ATOM      4  C   UNL     1       1.094   0.236   0.450  0.00  0.00    +0.000 C 
ATOM      5  H   UNL     1       2.419   0.337  -1.147  0.00  0.00    +0.000 HD
BRANCH   3   6
ATOM      6  C   UNL     1       3.164  -1.130   0.194  0.00  0.00    +0.000 C 
BRANCH   6   7
ATOM      7  C   UNL     1       3.716  -1.897  -1.023  0.00  0.00    +0.000 C 
BRANCH   7   8
ATOM      8  C   UNL     1       4.636  -3.092  -0.706  0.00  0.00    +0.000 C 
ATOM      9  C   UNL     1       3.936  -4.162   0.132  0.00  0.00    +0.000 C 
ATOM     10  C   UNL     1       5.147  -3.711  -2.011  0.00  0.00    +0.000 C 
ENDBRANCH   7   8
ENDBRANCH   6   7
BRANCH   6  11
ATOM     11  C   UNL     1       4.254  -0.485   1.073  0.00  0.00    +0.000 C 
BRANCH  11  12
ATOM     12  O   UNL     1       3.662   0.132   2.217  0.00  0.00    +0.000 OA
ATOM     13  H   UNL     1       4.379   0.531   2.738  0.00  0.00    +0.000 HD
ENDBRANCH  11  12
BRANCH  11  14
ATOM     14  C   UNL     1       5.096   0.550   0.327  0.00  0.00    +0.000 C 
BRANCH  14  15
ATOM     15  O   UNL     1       6.049   1.104   1.228  0.00  0.00    +0.000 OA
ATOM     16  C   UNL     1       6.873   2.066   0.585  0.00  0.00    +0.000 C 
ENDBRANCH  14  15
ENDBRANCH  11  14
ENDBRANCH   6  11
ENDBRANCH   3   6
ENDBRANCH   1   4
BRANCH   1  18
ATOM     17  O   UNL     1      -1.480  -0.642  -1.683  0.00  0.00    +0.000 OA
ATOM     18  N   UNL     1      -1.136   0.941  -0.022  0.00  0.00    +0.000 N 
ATOM     19  C   UNL     1      -1.883   0.022  -0.733  0.00  0.00    +0.000 C 
ATOM     20  H   UNL     1      -1.576   1.385   0.779  0.00  0.00    +0.000 HD
BRANCH  19  21
ATOM     21  O   UNL     1      -3.148  -0.044  -0.222  0.00  0.00    +0.000 OA
BRANCH  21  22
ATOM     22  C   UNL     1      -4.036  -0.963  -0.867  0.00  0.00    +0.000 C 
BRANCH  22  23
ATOM     23  C   UNL     1      -5.373  -0.912  -0.188  0.00  0.00    +0.000 A 
ATOM     24  C   UNL     1      -5.642  -1.760   0.886  0.00  0.00    +0.000 A 
ATOM     25  C   UNL     1      -6.346  -0.016  -0.630  0.00  0.00    +0.000 A 
ATOM     26  C   UNL     1      -6.885  -1.712   1.518  0.00  0.00    +0.000 A 
ATOM     27  C   UNL     1      -7.589   0.032   0.001  0.00  0.00    +0.000 A 
ATOM     28  C   UNL     1      -7.858  -0.817   1.075  0.00  0.00    +0.000 A 
ENDBRANCH  22  23
ENDBRANCH  21  22
ENDBRANCH  19  21
ENDBRANCH   1  18
BRANCH   1  29
ATOM     29  C   UNL     1       0.616   2.676   0.114  0.00  0.00    +0.000 C 
BRANCH  29  30
ATOM     30  C   UNL     1      -0.218   3.788  -0.555  0.00  0.00    +0.000 C 
ATOM     31  C   UNL     1       0.162   5.182  -0.056  0.00  0.00    +0.000 C 
ATOM     32  C   UNL     1      -0.045   3.719  -2.075  0.00  0.00    +0.000 C 
ENDBRANCH  29  30
ENDBRANCH   1  29
TORSDOF 14
