REMARK  Name = 16220131
REMARK  13 active torsions:
REMARK  status: ('A' for Active; 'I' for Inactive)
REMARK    1  A    between atoms: O_2  and  C_18
REMARK    2  A    between atoms: O_2  and  C_23
REMARK    3  A    between atoms: O_4  and  C_19
REMARK    4  A    between atoms: N_6  and  C_10
REMARK    5  A    between atoms: N_7  and  C_8
REMARK    6  A    between atoms: C_8  and  C_9
REMARK    7  A    between atoms: C_8  and  C_11
REMARK    8  A    between atoms: C_9  and  C_12
REMARK    9  A    between atoms: C_10  and  C_13
REMARK   10  A    between atoms: C_10  and  C_14
REMARK   11  A    between atoms: C_13  and  C_15
REMARK   12  A    between atoms: C_15  and  C_19
REMARK   13  A    between atoms: C_23  and  C_24
REMARK                            x       y       z     vdW  Elec       q    Type
REMARK                         _______ _______ _______ _____ _____    ______ ____
ROOT
ATOM      1  C   UNL     1      -1.147   1.097  -0.430  0.00  0.00    +0.000 C 
ENDROOT
BRANCH   1   4
ATOM      2  O   UNL     1      -1.717  -0.744  -1.901  0.00  0.00    +0.000 OA
ATOM      3  N   UNL     1      -3.234  -0.121  -0.255  0.00  0.00    +0.000 N 
ATOM      4  C   UNL     1      -2.044  -0.012  -0.969  0.00  0.00    +0.000 C 
ATOM      5  H   UNL     1      -3.386   0.495   0.538  0.00  0.00    +0.000 HD
BRANCH   3   6
ATOM      6  C   UNL     1      -4.235  -1.117  -0.526  0.00  0.00    +0.000 C 
ATOM      7  C   UNL     1      -5.626  -0.635  -0.157  0.00  0.00    +0.000 C 
BRANCH   6   9
ATOM      8  O   UNL     1      -3.375  -2.284   1.399  0.00  0.00    +0.000 OA
ATOM      9  C   UNL     1      -3.868  -2.359   0.274  0.00  0.00    +0.000 C 
BRANCH   9  10
ATOM     10  C   UNL     1      -4.194  -3.694  -0.383  0.00  0.00    +0.000 C 
BRANCH  10  11
ATOM     11  C   UNL     1      -3.811  -4.892   0.473  0.00  0.00    +0.000 C 
BRANCH  11  12
ATOM     12  O   UNL     1      -2.421  -4.862   0.773  0.00  0.00    +0.000 OA
ATOM     13  H   UNL     1      -1.939  -4.875  -0.072  0.00  0.00    +0.000 HD
ENDBRANCH  11  12
ENDBRANCH  10  11
ENDBRANCH   9  10
ENDBRANCH   6   9
ENDBRANCH   3   6
ENDBRANCH   1   4
BRANCH   1  15
ATOM     14  O   UNL     1       0.333  -0.489   1.501  0.00  0.00    +0.000 OA
ATOM     15  N   UNL     1       0.213   0.630  -0.528  0.00  0.00    +0.000 N 
ATOM     16  C   UNL     1       0.839  -0.123   0.445  0.00  0.00    +0.000 C 
ATOM     17  H   UNL     1       0.731   0.822  -1.380  0.00  0.00    +0.000 HD
BRANCH  16  18
ATOM     18  O   UNL     1       2.119  -0.407   0.059  0.00  0.00    +0.000 OA
BRANCH  18  19
ATOM     19  C   UNL     1       2.890  -1.188   0.979  0.00  0.00    +0.000 C 
BRANCH  19  20
ATOM     20  C   UNL     1       4.260  -1.407   0.407  0.00  0.00    +0.000 A 
ATOM     21  C   UNL     1       4.511  -2.520  -0.395  0.00  0.00    +0.000 A 
ATOM     22  C   UNL     1       5.282  -0.497   0.676  0.00  0.00    +0.000 A 
ATOM     23  C   UNL     1       5.784  -2.724  -0.927  0.00  0.00    +0.000 A 
ATOM     24  C   UNL     1       6.556  -0.701   0.144  0.00  0.00    +0.000 A 
ATOM     25  C   UNL     1       6.806  -1.814  -0.658  0.00  0.00    +0.000 A 
ENDBRANCH  19  20
ENDBRANCH  18  19
ENDBRANCH  16  18
ENDBRANCH   1  15
BRANCH   1  26
ATOM     26  C   UNL     1      -1.372   2.394  -1.216  0.00  0.00    +0.000 C 
BRANCH  26  27
ATOM     27  C   UNL     1      -0.880   3.615  -0.479  0.00  0.00    +0.000 A 
ATOM     28  C   UNL     1       0.432   4.055  -0.655  0.00  0.00    +0.000 A 
ATOM     29  C   UNL     1      -1.736   4.305   0.380  0.00  0.00    +0.000 A 
ATOM     30  C   UNL     1       0.887   5.184   0.026  0.00  0.00    +0.000 A 
ATOM     31  C   UNL     1      -1.281   5.434   1.061  0.00  0.00    +0.000 A 
ATOM     32  C   UNL     1       0.030   5.873   0.884  0.00  0.00    +0.000 A 
ENDBRANCH  26  27
ENDBRANCH   1  26
TORSDOF 12
