REMARK  Name = 23400214
REMARK  6 active torsions:
REMARK  status: ('A' for Active; 'I' for Inactive)
REMARK    1  A    between atoms: N_2  and  C_13
REMARK    2  A    between atoms: N_3  and  C_10
REMARK    3  A    between atoms: N_3  and  C_11
REMARK    4  A    between atoms: N_7  and  C_27
REMARK    5  A    between atoms: C_12  and  C_19
REMARK    6  A    between atoms: C_16  and  C_23
REMARK                            x       y       z     vdW  Elec       q    Type
REMARK                         _______ _______ _______ _____ _____    ______ ____
ROOT
ATOM      1  N   UNL     1      -3.326  -0.538   0.222  0.00  0.00    +0.000 N 
ATOM      2  N   UNL     1      -3.178  -1.801   0.664  0.00  0.00    +0.000 NA
ATOM      3  N   UNL     1      -1.980   1.326  -0.536  0.00  0.00    +0.000 NA
ATOM      4  N   UNL     1       0.400   0.792  -0.506  0.00  0.00    +0.000 NA
ATOM      5  C   UNL     1      -1.154  -0.853   0.187  0.00  0.00    +0.000 A 
ATOM      6  C   UNL     1      -2.146   0.075  -0.078  0.00  0.00    +0.000 A 
ATOM      7  C   UNL     1       0.159  -0.458  -0.043  0.00  0.00    +0.000 A 
ATOM      8  C   UNL     1      -1.854  -1.987   0.640  0.00  0.00    +0.000 A 
ATOM      9  C   UNL     1      -0.669   1.595  -0.721  0.00  0.00    +0.000 A 
ENDROOT
BRANCH   1  10
ATOM     10  C   UNL     1      -4.598   0.019   0.109  0.00  0.00    +0.000 A 
ATOM     11  C   UNL     1      -4.775   1.393   0.272  0.00  0.00    +0.000 A 
ATOM     12  C   UNL     1      -5.696  -0.797  -0.166  0.00  0.00    +0.000 A 
ATOM     13  C   UNL     1      -6.049   1.951   0.160  0.00  0.00    +0.000 A 
ATOM     14  C   UNL     1      -6.969  -0.240  -0.278  0.00  0.00    +0.000 A 
ATOM     15  C   UNL     1      -7.146   1.135  -0.115  0.00  0.00    +0.000 A 
ENDBRANCH   1  10
BRANCH   7  16
ATOM     16  N   UNL     1       1.230  -1.337   0.199  0.00  0.00    +0.000 N 
ATOM     17  H   UNL     1       0.929  -2.274   0.447  0.00  0.00    +0.000 HD
BRANCH  16  18
ATOM     18  C   UNL     1       2.628  -1.205   0.058  0.00  0.00    +0.000 A 
ATOM     19  C   UNL     1       3.423  -2.312  -0.237  0.00  0.00    +0.000 A 
ATOM     20  C   UNL     1       3.213   0.051   0.216  0.00  0.00    +0.000 A 
ATOM     21  C   UNL     1       4.594   0.200   0.081  0.00  0.00    +0.000 A 
ATOM     22  C   UNL     1       4.804  -2.164  -0.372  0.00  0.00    +0.000 A 
ATOM     23  C   UNL     1       5.389  -0.907  -0.214  0.00  0.00    +0.000 A 
ATOM     24  C   UNL     1       2.824  -3.670  -0.412  0.00  0.00    +0.000 C 
BRANCH  21  27
ATOM     25  O   UNL     1       6.391   1.612   0.604  0.00  0.00    +0.000 OA
ATOM     26  N   UNL     1       4.405   2.624  -0.036  0.00  0.00    +0.000 N 
ATOM     27  C   UNL     1       5.204   1.510   0.246  0.00  0.00    +0.000 C 
ATOM     28  C   UNL     1       4.874   3.987   0.058  0.00  0.00    +0.000 C 
ATOM     29  H   UNL     1       3.472   2.497  -0.413  0.00  0.00    +0.000 HD
ENDBRANCH  21  27
ENDBRANCH  16  18
ENDBRANCH   7  16
TORSDOF 4
