REMARK  Name = 
REMARK  37 active torsions:
REMARK  status: ('A' for Active; 'I' for Inactive)
REMARK    1  A    between atoms: C_1  and  C_61
REMARK    2  A    between atoms: N_3  and  C_4
REMARK    3  A    between atoms: C_4  and  C_5
REMARK    4  A    between atoms: C_4  and  C_10
REMARK    5  A    between atoms: C_5  and  C_6
REMARK    6  A    between atoms: C_6  and  C_7
REMARK    7  A    between atoms: C_7  and  O_8
REMARK    8  A    between atoms: C_10  and  N_11
REMARK    9  A    between atoms: N_11  and  C_12
REMARK   10  A    between atoms: C_12  and  C_13
REMARK   11  A    between atoms: C_12  and  C_55
REMARK   12  A    between atoms: N_15  and  C_16
REMARK   13  A    between atoms: C_16  and  C_17
REMARK   14  A    between atoms: C_16  and  C_51
REMARK   15  A    between atoms: N_19  and  C_20
REMARK   16  A    between atoms: C_20  and  C_21
REMARK   17  A    between atoms: C_20  and  C_26
REMARK   18  A    between atoms: C_21  and  C_22
REMARK   19  A    between atoms: C_22  and  C_23
REMARK   20  A    between atoms: N_28  and  C_29
REMARK   21  A    between atoms: C_29  and  C_30
REMARK   22  A    between atoms: C_29  and  C_44
REMARK   23  A    between atoms: N_31  and  C_32
REMARK   24  A    between atoms: C_32  and  C_33
REMARK   25  A    between atoms: C_32  and  C_36
REMARK   26  A    between atoms: C_36  and  C_37
REMARK   27  A    between atoms: C_37  and  C_38
REMARK   28  A    between atoms: C_38  and  N_39
REMARK   29  A    between atoms: C_44  and  C_45
REMARK   30  A    between atoms: C_45  and  C_46
REMARK   31  A    between atoms: C_46  and  N_47
REMARK   32  A    between atoms: C_51  and  C_52
REMARK   33  A    between atoms: C_52  and  S_53
REMARK   34  A    between atoms: S_53  and  C_54
REMARK   35  A    between atoms: C_55  and  C_56
REMARK   36  A    between atoms: C_56  and  C_57
REMARK   37  A    between atoms: C_57  and  O_59
REMARK                            x       y       z     vdW  Elec       q    Type
REMARK                         _______ _______ _______ _____ _____    ______ ____
ROOT
ATOM      1  C   UNL     1       1.070   0.206   0.000  0.00  0.00    +0.000 C 
ENDROOT
BRANCH   1   2
ATOM      2  C   UNL     1       1.785  -0.206   0.000  0.00  0.00    +0.000 C 
ATOM      3  O   UNL     1       1.785  -1.030   0.000  0.00  0.00    +0.000 OA
ATOM      4  N   UNL     1       2.500   0.206   0.000  0.00  0.00    +0.000 N 
ATOM      5  H   UNL     1       2.500   1.190   0.000  0.00  0.00    +0.000 HD
BRANCH   4   6
ATOM      6  C   UNL     1       3.215  -0.206   0.000  0.00  0.00    +0.000 C 
BRANCH   6   7
ATOM      7  C   UNL     1       3.929   0.206   0.000  0.00  0.00    +0.000 C 
ATOM      8  N   UNL     1       4.644  -0.206   0.000  0.00  0.00    +0.000 N 
ATOM      9  O   UNL     1       3.929   1.030   0.000  0.00  0.00    +0.000 OA
ATOM     10  H   UNL     1       4.646  -1.190   0.000  0.00  0.00    +0.000 HD
BRANCH   8  11
ATOM     11  C   UNL     1       5.355   0.206   0.000  0.00  0.00    +0.000 C 
BRANCH  11  12
ATOM     12  C   UNL     1       6.069  -0.206   0.000  0.00  0.00    +0.000 C 
ATOM     13  O   UNL     1       6.069  -1.030   0.000  0.00  0.00    +0.000 OA
ATOM     14  N   UNL     1       6.784   0.206   0.000  0.00  0.00    +0.000 N 
ATOM     15  H   UNL     1       7.637  -0.287   0.000  0.00  0.00    +0.000 HD
ATOM     16  H   UNL     1       6.785   1.190   0.000  0.00  0.00    +0.000 HD
ENDBRANCH  11  12
BRANCH  11  17
ATOM     17  C   UNL     1       5.355   1.030   0.000  0.00  0.00    +0.000 C 
BRANCH  17  18
ATOM     18  C   UNL     1       6.069   1.442   0.000  0.00  0.00    +0.000 C 
BRANCH  18  19
ATOM     19  C   UNL     1       6.069   2.270   0.000  0.00  0.00    +0.000 C 
BRANCH  19  20
ATOM     20  N   UNL     1       6.784   2.682   0.000  0.00  0.00    +0.000 N 
ATOM     21  C   UNL     1       6.784   3.506   0.000  0.00  0.00    +0.000 C 
ATOM     22  N   UNL     1       7.499   3.917   0.000  0.00  0.00    +0.000 N 
ATOM     23  N   UNL     1       6.069   3.917   0.000  0.00  0.00    +0.000 NA
ATOM     24  H   UNL     1       7.637   2.189   0.000  0.00  0.00    +0.000 HD
ATOM     25  H   UNL     1       8.351   3.424   0.000  0.00  0.00    +0.000 HD
ATOM     26  H   UNL     1       7.500   4.902   0.000  0.00  0.00    +0.000 HD
ATOM     27  H   UNL     1       6.069   4.902   0.000  0.00  0.00    +0.000 HD
ENDBRANCH  19  20
ENDBRANCH  18  19
ENDBRANCH  17  18
ENDBRANCH  11  17
ENDBRANCH   8  11
ENDBRANCH   6   7
BRANCH   6  28
ATOM     28  C   UNL     1       3.215  -1.030   0.000  0.00  0.00    +0.000 C 
BRANCH  28  29
ATOM     29  C   UNL     1       3.929  -1.442   0.000  0.00  0.00    +0.000 C 
BRANCH  29  30
ATOM     30  C   UNL     1       3.929  -2.270   0.000  0.00  0.00    +0.000 C 
BRANCH  30  31
ATOM     31  N   UNL     1       4.644  -2.682   0.000  0.00  0.00    +0.000 N 
ATOM     32  C   UNL     1       4.644  -3.506   0.000  0.00  0.00    +0.000 C 
ATOM     33  N   UNL     1       5.355  -3.917   0.000  0.00  0.00    +0.000 N 
ATOM     34  N   UNL     1       3.929  -3.917   0.000  0.00  0.00    +0.000 NA
ATOM     35  H   UNL     1       5.497  -2.189   0.000  0.00  0.00    +0.000 HD
ATOM     36  H   UNL     1       5.353  -4.902   0.000  0.00  0.00    +0.000 HD
ATOM     37  H   UNL     1       6.208  -3.427   0.000  0.00  0.00    +0.000 HD
ATOM     38  H   UNL     1       3.077  -3.424   0.000  0.00  0.00    +0.000 HD
ENDBRANCH  30  31
ENDBRANCH  29  30
ENDBRANCH  28  29
ENDBRANCH   6  28
ENDBRANCH   4   6
ENDBRANCH   1   2
BRANCH   1  41
ATOM     39  C   UNL     1      -0.355   0.206   0.000  0.00  0.00    +0.000 C 
ATOM     40  O   UNL     1      -0.355   1.030   0.000  0.00  0.00    +0.000 OA
ATOM     41  N   UNL     1       0.360  -0.206   0.000  0.00  0.00    +0.000 N 
ATOM     42  H   UNL     1       0.361  -1.190   0.000  0.00  0.00    +0.000 HD
BRANCH  39  43
ATOM     43  C   UNL     1      -1.070  -0.206   0.000  0.00  0.00    +0.000 C 
BRANCH  43  46
ATOM     44  C   UNL     1      -2.500  -0.206   0.000  0.00  0.00    +0.000 C 
ATOM     45  O   UNL     1      -2.500  -1.030   0.000  0.00  0.00    +0.000 OA
ATOM     46  N   UNL     1      -1.785   0.206   0.000  0.00  0.00    +0.000 N 
ATOM     47  H   UNL     1      -1.785   1.190   0.000  0.00  0.00    +0.000 HD
BRANCH  44  48
ATOM     48  C   UNL     1      -3.215   0.206   0.000  0.00  0.00    +0.000 C 
BRANCH  48  49
ATOM     49  N   UNL     1      -3.929  -0.206   0.000  0.00  0.00    +0.000 N 
ATOM     50  H   UNL     1      -3.929  -1.190   0.000  0.00  0.00    +0.000 HD
BRANCH  49  51
ATOM     51  C   UNL     1      -4.644   0.206   0.000  0.00  0.00    +0.000 C 
ATOM     52  C   UNL     1      -4.644   1.030   0.000  0.00  0.00    +0.000 C 
BRANCH  51  53
ATOM     53  C   UNL     1      -5.355  -0.206   0.000  0.00  0.00    +0.000 C 
BRANCH  53  56
ATOM     54  C   UNL     1      -6.784  -0.206   0.000  0.00  0.00    +0.000 C 
ATOM     55  O   UNL     1      -6.784  -1.030   0.000  0.00  0.00    +0.000 OA
ATOM     56  N   UNL     1      -6.069   0.206   0.000  0.00  0.00    +0.000 N 
ATOM     57  C   UNL     1      -7.499   0.206   0.000  0.00  0.00    +0.000 C 
ATOM     58  H   UNL     1      -6.070   1.190   0.000  0.00  0.00    +0.000 HD
ENDBRANCH  53  56
BRANCH  53  59
ATOM     59  C   UNL     1      -5.355  -1.030   0.000  0.00  0.00    +0.000 C 
BRANCH  59  60
ATOM     60  C   UNL     1      -6.076  -1.442   0.000  0.00  0.00    +0.000 C 
BRANCH  60  61
ATOM     61  C   UNL     1      -6.076  -2.265   0.000  0.00  0.00    +0.000 C 
ATOM     62  O   UNL     1      -6.795  -2.671   0.000  0.00  0.00    +0.000 OA
BRANCH  61  63
ATOM     63  O   UNL     1      -5.365  -2.683   0.000  0.00  0.00    +0.000 OA
ATOM     64  H   UNL     1      -5.372  -3.620   0.000  0.00  0.00    +0.000 HD
ENDBRANCH  61  63
ENDBRANCH  60  61
ENDBRANCH  59  60
ENDBRANCH  53  59
ENDBRANCH  51  53
ENDBRANCH  49  51
ENDBRANCH  48  49
BRANCH  48  65
ATOM     65  C   UNL     1      -3.215   1.030   0.000  0.00  0.00    +0.000 C 
BRANCH  65  66
ATOM     66  C   UNL     1      -2.508   1.442   0.000  0.00  0.00    +0.000 C 
BRANCH  66  67
ATOM     67  C   UNL     1      -2.508   2.274   0.000  0.00  0.00    +0.000 C 
ATOM     68  O   UNL     1      -3.227   2.679   0.000  0.00  0.00    +0.000 OA
BRANCH  67  69
ATOM     69  O   UNL     1      -1.798   2.689   0.000  0.00  0.00    +0.000 OA
ATOM     70  H   UNL     1      -0.984   2.224   0.000  0.00  0.00    +0.000 HD
ENDBRANCH  67  69
ENDBRANCH  66  67
ENDBRANCH  65  66
ENDBRANCH  48  65
ENDBRANCH  44  48
ENDBRANCH  43  46
BRANCH  43  71
ATOM     71  C   UNL     1      -1.070  -1.030   0.000  0.00  0.00    +0.000 C 
BRANCH  71  72
ATOM     72  C   UNL     1      -0.355  -1.442   0.000  0.00  0.00    +0.000 C 
BRANCH  72  73
ATOM     73  S   UNL     1      -0.355  -2.270   0.000  0.00  0.00    +0.000 S 
ATOM     74  C   UNL     1      -0.355  -3.089   0.000  0.00  0.00    +0.000 C 
ENDBRANCH  72  73
ENDBRANCH  71  72
ENDBRANCH  43  71
ENDBRANCH  39  43
ENDBRANCH   1  41
BRANCH   1  75
ATOM     75  C   UNL     1       1.070   1.030   0.000  0.00  0.00    +0.000 C 
BRANCH  75  76
ATOM     76  C   UNL     1       1.785   1.442   0.000  0.00  0.00    +0.000 C 
BRANCH  76  77
ATOM     77  C   UNL     1       1.785   2.270   0.000  0.00  0.00    +0.000 C 
ATOM     78  O   UNL     1       1.069   2.686   0.000  0.00  0.00    +0.000 OA
ATOM     79  N   UNL     1       2.500   2.681   0.000  0.00  0.00    +0.000 N 
ATOM     80  H   UNL     1       3.352   2.188   0.000  0.00  0.00    +0.000 HD
ATOM     81  H   UNL     1       2.502   3.666   0.000  0.00  0.00    +0.000 HD
ENDBRANCH  76  77
ENDBRANCH  75  76
ENDBRANCH   1  75
TORSDOF 35
