REMARK  Name = 
REMARK  39 active torsions:
REMARK  status: ('A' for Active; 'I' for Inactive)
REMARK    1  A    between atoms: C_1  and  C_2
REMARK    2  A    between atoms: N_3  and  C_4
REMARK    3  A    between atoms: C_4  and  C_5
REMARK    4  A    between atoms: C_4  and  C_59
REMARK    5  A    between atoms: N_6  and  C_7
REMARK    6  A    between atoms: C_7  and  C_8
REMARK    7  A    between atoms: C_7  and  C_70
REMARK    8  A    between atoms: N_9  and  C_10
REMARK    9  A    between atoms: C_10  and  C_11
REMARK   10  A    between atoms: C_10  and  C_63
REMARK   11  A    between atoms: N_12  and  N_13
REMARK   12  A    between atoms: N_15  and  C_16
REMARK   13  A    between atoms: C_16  and  C_17
REMARK   14  A    between atoms: C_16  and  C_47
REMARK   15  A    between atoms: N_18  and  C_19
REMARK   16  A    between atoms: C_19  and  C_20
REMARK   17  A    between atoms: C_19  and  C_51
REMARK   18  A    between atoms: N_21  and  C_22
REMARK   19  A    between atoms: C_22  and  C_23
REMARK   20  A    between atoms: C_22  and  C_37
REMARK   21  A    between atoms: C_28  and  O_73
REMARK   22  A    between atoms: C_37  and  C_38
REMARK   23  A    between atoms: C_47  and  C_48
REMARK   24  A    between atoms: C_48  and  C_49
REMARK   25  A    between atoms: C_48  and  C_50
REMARK   26  A    between atoms: C_51  and  C_52
REMARK   27  A    between atoms: C_52  and  C_53
REMARK   28  A    between atoms: C_53  and  N_54
REMARK   29  A    between atoms: N_56  and  C_57
REMARK   30  A    between atoms: C_59  and  C_60
REMARK   31  A    between atoms: C_63  and  C_64
REMARK   32  A    between atoms: C_70  and  O_71
REMARK   33  A    between atoms: C_70  and  C_72
REMARK   34  A    between atoms: C_75  and  C_76
REMARK   35  A    between atoms: C_76  and  N_77
REMARK   36  A    between atoms: C_76  and  C_80
REMARK   37  A    between atoms: C_78  and  C_79
REMARK   38  A    between atoms: C_80  and  C_81
REMARK   39  A    between atoms: C_84  and  O_89
REMARK                            x       y       z     vdW  Elec       q    Type
REMARK                         _______ _______ _______ _____ _____    ______ ____
ROOT
ATOM      1  C   UNL     1      -0.608   0.956   0.000  0.00  0.00    +0.000 C 
ENDROOT
BRANCH   1   3
ATOM      2  C   UNL     1      -2.037   0.956   0.000  0.00  0.00    +0.000 C 
ATOM      3  N   UNL     1      -1.322   0.544   0.000  0.00  0.00    +0.000 N 
ATOM      4  O   UNL     1      -2.037   1.781   0.000  0.00  0.00    +0.000 OA
ATOM      5  H   UNL     1      -1.322  -0.441   0.000  0.00  0.00    +0.000 HD
BRANCH   2   6
ATOM      6  C   UNL     1      -2.751   0.544   0.000  0.00  0.00    +0.000 C 
BRANCH   6   8
ATOM      7  C   UNL     1      -4.180   0.544   0.000  0.00  0.00    +0.000 C 
ATOM      8  N   UNL     1      -3.466   0.956   0.000  0.00  0.00    +0.000 N 
ATOM      9  O   UNL     1      -4.180  -0.281   0.000  0.00  0.00    +0.000 OA
ATOM     10  H   UNL     1      -3.466   1.941   0.000  0.00  0.00    +0.000 HD
BRANCH   7  11
ATOM     11  C   UNL     1      -4.895   0.956   0.000  0.00  0.00    +0.000 C 
BRANCH  11  13
ATOM     12  C   UNL     1      -6.324   0.956   0.000  0.00  0.00    +0.000 C 
ATOM     13  N   UNL     1      -5.609   0.544   0.000  0.00  0.00    +0.000 N 
ATOM     14  O   UNL     1      -6.324   1.781   0.000  0.00  0.00    +0.000 OA
ATOM     15  H   UNL     1      -5.609  -0.441   0.000  0.00  0.00    +0.000 HD
BRANCH  12  16
ATOM     16  C   UNL     1      -7.038   0.544   0.000  0.00  0.00    +0.000 C 
ATOM     17  C   UNL     1      -7.753   0.956   0.000  0.00  0.00    +0.000 C 
ATOM     18  N   UNL     1      -7.224  -0.278   0.000  0.00  0.00    +0.000 N 
ATOM     19  C   UNL     1      -8.025  -0.358   0.000  0.00  0.00    +0.000 C 
ATOM     20  C   UNL     1      -8.357   0.401   0.000  0.00  0.00    +0.000 C 
ATOM     21  C   UNL     1      -6.427  -0.491   0.000  0.00  0.00    +0.000 C 
ATOM     22  O   UNL     1      -5.843   0.092   0.000  0.00  0.00    +0.000 OA
BRANCH  20  23
ATOM     23  O   UNL     1      -9.154   0.615   0.000  0.00  0.00    +0.000 OA
ATOM     24  H   UNL     1      -9.405   1.552   0.000  0.00  0.00    +0.000 HD
ENDBRANCH  20  23
BRANCH  21  25
ATOM     25  C   UNL     1      -6.213  -1.288   0.000  0.00  0.00    +0.000 C 
BRANCH  25  26
ATOM     26  N   UNL     1      -5.416  -1.502   0.000  0.00  0.00    +0.000 N 
ATOM     27  C   UNL     1      -5.203  -2.298   0.000  0.00  0.00    +0.000 C 
ATOM     28  C   UNL     1      -4.406  -2.512   0.000  0.00  0.00    +0.000 C 
ATOM     29  O   UNL     1      -5.786  -2.882   0.000  0.00  0.00    +0.000 OA
ATOM     30  H   UNL     1      -4.720  -0.805   0.000  0.00  0.00    +0.000 HD
ENDBRANCH  25  26
BRANCH  25  31
ATOM     31  C   UNL     1      -6.796  -1.871   0.000  0.00  0.00    +0.000 C 
BRANCH  31  32
ATOM     32  C   UNL     1      -7.593  -1.658   0.000  0.00  0.00    +0.000 A 
ATOM     33  C   UNL     1      -8.177  -2.241   0.000  0.00  0.00    +0.000 A 
ATOM     34  C   UNL     1      -8.971  -2.027   0.000  0.00  0.00    +0.000 A 
ATOM     35  C   UNL     1      -9.185  -1.230   0.000  0.00  0.00    +0.000 A 
ATOM     36  C   UNL     1      -8.605  -0.649   0.000  0.00  0.00    +0.000 A 
ATOM     37  C   UNL     1      -7.808  -0.858   0.000  0.00  0.00    +0.000 A 
BRANCH  35  38
ATOM     38  O   UNL     1      -9.982  -1.017   0.000  0.00  0.00    +0.000 OA
ATOM     39  H   UNL     1     -10.224  -0.112   0.000  0.00  0.00    +0.000 HD
ENDBRANCH  35  38
ENDBRANCH  31  32
ENDBRANCH  25  31
ENDBRANCH  21  25
ENDBRANCH  12  16
ENDBRANCH  11  13
BRANCH  11  40
ATOM     40  C   UNL     1      -4.895   1.781   0.000  0.00  0.00    +0.000 C 
BRANCH  40  41
ATOM     41  C   UNL     1      -4.482   2.496   0.000  0.00  0.00    +0.000 C 
ATOM     42  N   UNL     1      -4.895   3.210   0.000  0.00  0.00    +0.000 N 
ATOM     43  O   UNL     1      -3.657   2.496   0.000  0.00  0.00    +0.000 OA
ATOM     44  H   UNL     1      -4.402   4.063   0.000  0.00  0.00    +0.000 HD
ATOM     45  H   UNL     1      -5.879   3.210   0.000  0.00  0.00    +0.000 HD
ENDBRANCH  40  41
ENDBRANCH  11  40
ENDBRANCH   7  11
ENDBRANCH   6   8
BRANCH   6  46
ATOM     46  C   UNL     1      -2.751  -0.281   0.000  0.00  0.00    +0.000 C 
ATOM     47  C   UNL     1      -3.466  -0.694   0.000  0.00  0.00    +0.000 C 
BRANCH  46  48
ATOM     48  O   UNL     1      -2.037  -0.694   0.000  0.00  0.00    +0.000 OA
ATOM     49  H   UNL     1      -2.037  -1.664   0.000  0.00  0.00    +0.000 HD
ENDBRANCH  46  48
ENDBRANCH   6  46
ENDBRANCH   2   6
ENDBRANCH   1   3
BRANCH   1  50
ATOM     50  C   UNL     1       0.107   0.544   0.000  0.00  0.00    +0.000 C 
ATOM     51  N   UNL     1       0.821   0.956   0.000  0.00  0.00    +0.000 N 
ATOM     52  O   UNL     1       0.107  -0.281   0.000  0.00  0.00    +0.000 OA
ATOM     53  H   UNL     1       0.821   1.941   0.000  0.00  0.00    +0.000 HD
BRANCH  51  54
ATOM     54  N   UNL     1       1.536   0.544   0.000  0.00  0.00    +0.000 N 
ATOM     55  C   UNL     1       2.250   0.956   0.000  0.00  0.00    +0.000 C 
ATOM     56  N   UNL     1       2.965   0.544   0.000  0.00  0.00    +0.000 N 
ATOM     57  O   UNL     1       2.250   1.781   0.000  0.00  0.00    +0.000 OA
ATOM     58  H   UNL     1       1.536  -0.441   0.000  0.00  0.00    +0.000 HD
ATOM     59  H   UNL     1       2.965  -0.441   0.000  0.00  0.00    +0.000 HD
BRANCH  56  60
ATOM     60  C   UNL     1       3.679   0.956   0.000  0.00  0.00    +0.000 C 
BRANCH  60  61
ATOM     61  C   UNL     1       4.394   0.544   0.000  0.00  0.00    +0.000 C 
ATOM     62  N   UNL     1       5.108   0.956   0.000  0.00  0.00    +0.000 N 
ATOM     63  O   UNL     1       4.394  -0.281   0.000  0.00  0.00    +0.000 OA
ATOM     64  H   UNL     1       5.108   1.941   0.000  0.00  0.00    +0.000 HD
BRANCH  62  65
ATOM     65  C   UNL     1       5.823   0.544   0.000  0.00  0.00    +0.000 C 
BRANCH  65  66
ATOM     66  C   UNL     1       6.537   0.956   0.000  0.00  0.00    +0.000 C 
ATOM     67  N   UNL     1       7.252   0.544   0.000  0.00  0.00    +0.000 N 
ATOM     68  O   UNL     1       6.537   1.781   0.000  0.00  0.00    +0.000 OA
ATOM     69  H   UNL     1       7.251  -0.441   0.000  0.00  0.00    +0.000 HD
BRANCH  67  70
ATOM     70  C   UNL     1       7.966   0.956   0.000  0.00  0.00    +0.000 C 
BRANCH  70  71
ATOM     71  C   UNL     1       8.681   0.544   0.000  0.00  0.00    +0.000 C 
ATOM     72  N   UNL     1       9.395   0.956   0.000  0.00  0.00    +0.000 N 
ATOM     73  O   UNL     1       8.681  -0.281   0.000  0.00  0.00    +0.000 OA
ATOM     74  H   UNL     1      10.248   0.464   0.000  0.00  0.00    +0.000 HD
ATOM     75  H   UNL     1       9.395   1.941   0.000  0.00  0.00    +0.000 HD
ENDBRANCH  70  71
BRANCH  70  76
ATOM     76  C   UNL     1       7.966   1.781   0.000  0.00  0.00    +0.000 C 
BRANCH  76  77
ATOM     77  C   UNL     1       8.681   2.194   0.000  0.00  0.00    +0.000 A 
ATOM     78  C   UNL     1       9.436   1.862   0.000  0.00  0.00    +0.000 A 
ATOM     79  N   UNL     1       9.982   2.470   0.000  0.00  0.00    +0.000 N 
ATOM     80  C   UNL     1       9.571   3.182   0.000  0.00  0.00    +0.000 A 
ATOM     81  C   UNL     1       8.770   3.014   0.000  0.00  0.00    +0.000 A 
ATOM     82  C   UNL     1       8.226   3.621   0.000  0.00  0.00    +0.000 A 
ATOM     83  C   UNL     1       8.480   4.399   0.000  0.00  0.00    +0.000 A 
ATOM     84  C   UNL     1       9.276   4.568   0.000  0.00  0.00    +0.000 A 
ATOM     85  C   UNL     1       9.826   3.963   0.000  0.00  0.00    +0.000 A 
ATOM     86  H   UNL     1      10.961   2.368   0.000  0.00  0.00    +0.000 HD
ENDBRANCH  76  77
ENDBRANCH  70  76
ENDBRANCH  67  70
ENDBRANCH  65  66
BRANCH  65  87
ATOM     87  C   UNL     1       5.823  -0.281   0.000  0.00  0.00    +0.000 C 
BRANCH  87  88
ATOM     88  C   UNL     1       6.235  -0.996   0.000  0.00  0.00    +0.000 C 
BRANCH  88  89
ATOM     89  C   UNL     1       5.823  -1.710   0.000  0.00  0.00    +0.000 C 
BRANCH  89  90
ATOM     90  N   UNL     1       6.235  -2.425   0.000  0.00  0.00    +0.000 N 
ATOM     91  C   UNL     1       5.823  -3.139   0.000  0.00  0.00    +0.000 C 
ATOM     92  N   UNL     1       6.235  -3.854   0.000  0.00  0.00    +0.000 N 
ATOM     93  C   UNL     1       5.823  -4.568   0.000  0.00  0.00    +0.000 C 
ATOM     94  N   UNL     1       4.997  -3.139   0.000  0.00  0.00    +0.000 NA
ATOM     95  H   UNL     1       7.220  -2.425   0.000  0.00  0.00    +0.000 HD
ATOM     96  H   UNL     1       7.220  -3.854   0.000  0.00  0.00    +0.000 HD
ATOM     97  H   UNL     1       4.505  -2.287   0.000  0.00  0.00    +0.000 HD
ENDBRANCH  89  90
ENDBRANCH  88  89
ENDBRANCH  87  88
ENDBRANCH  65  87
ENDBRANCH  62  65
ENDBRANCH  60  61
BRANCH  60  98
ATOM     98  C   UNL     1       3.679   1.781   0.000  0.00  0.00    +0.000 C 
BRANCH  98  99
ATOM     99  C   UNL     1       4.394   2.194   0.000  0.00  0.00    +0.000 C 
ATOM    100  C   UNL     1       4.394   3.019   0.000  0.00  0.00    +0.000 C 
ATOM    101  C   UNL     1       5.108   1.781   0.000  0.00  0.00    +0.000 C 
ENDBRANCH  98  99
ENDBRANCH  60  98
ENDBRANCH  56  60
ENDBRANCH  51  54
ENDBRANCH   1  50
BRANCH   1 102
ATOM    102  C   UNL     1      -0.608   1.781   0.000  0.00  0.00    +0.000 C 
BRANCH 102 103
ATOM    103  C   UNL     1       0.107   2.194   0.000  0.00  0.00    +0.000 A 
ATOM    104  C   UNL     1       0.107   3.019   0.000  0.00  0.00    +0.000 A 
ATOM    105  C   UNL     1       0.820   3.429   0.000  0.00  0.00    +0.000 A 
ATOM    106  C   UNL     1       1.534   3.017   0.000  0.00  0.00    +0.000 A 
ATOM    107  C   UNL     1       1.536   2.196   0.000  0.00  0.00    +0.000 A 
ATOM    108  C   UNL     1       0.824   1.780   0.000  0.00  0.00    +0.000 A 
ENDBRANCH 102 103
ENDBRANCH   1 102
TORSDOF 34
