REMARK  Name = 
REMARK  34 active torsions:
REMARK  status: ('A' for Active; 'I' for Inactive)
REMARK    1  A    between atoms: N_1  and  CA_2
REMARK    2  A    between atoms: CA_2  and  CB_3
REMARK    3  A    between atoms: CA_2  and  C_11
REMARK    4  A    between atoms: CB_3  and  CG_4
REMARK    5  A    between atoms: CZ_7  and  OH_8
REMARK    6  A    between atoms: N_13  and  CA_14
REMARK    7  A    between atoms: CA_14  and  C_15
REMARK    8  A    between atoms: CA_14  and  CB_41
REMARK    9  A    between atoms: N_16  and  CA_17
REMARK   10  A    between atoms: CA_17  and  C_18
REMARK   11  A    between atoms: CA_17  and  CB_33
REMARK   12  A    between atoms: CA_21  and  C_22
REMARK   13  A    between atoms: N_23  and  CA_24
REMARK   14  A    between atoms: CA_24  and  C_25
REMARK   15  A    between atoms: CA_24  and  CB_28
REMARK   16  A    between atoms: C_25  and  O_26
REMARK   17  A    between atoms: CB_33  and  CG_34
REMARK   18  A    between atoms: CB_41  and  CG2_42
REMARK   19  A    between atoms: CB_41  and  CG1_43
REMARK   20  A    between atoms: CG1_43  and  CD1_44
REMARK   21  A    between atoms: C_45  and  CA_47
REMARK   22  A    between atoms: CA_47  and  N_48
REMARK   23  A    between atoms: CA_47  and  CB_65
REMARK   24  A    between atoms: C_49  and  CA_51
REMARK   25  A    between atoms: CA_51  and  N_52
REMARK   26  A    between atoms: CA_51  and  CB_58
REMARK   27  A    between atoms: C_53  and  C_55
REMARK   28  A    between atoms: C_55  and  N_56
REMARK   29  A    between atoms: N_56  and  C_57
REMARK   30  A    between atoms: CB_58  and  CG_59
REMARK   31  A    between atoms: CG_59  and  CD_60
REMARK   32  A    between atoms: CD_60  and  NE_61
REMARK   33  A    between atoms: CB_65  and  CG1_66
REMARK   34  A    between atoms: CB_65  and  CG2_67
REMARK                            x       y       z     vdW  Elec       q    Type
REMARK                         _______ _______ _______ _____ _____    ______ ____
ROOT
ATOM      1  CA  ARG A   1       1.335   1.019   0.000  0.00  0.00    +0.000 C 
ENDROOT
BRANCH   1   2
ATOM      2  N   ARG A   1       1.319   1.844   0.000  0.00  0.00    +0.000 N 
ATOM      3  C   ARG A   1       2.025   2.271   0.000  0.00  0.00    +0.000 C 
ATOM      4  O   ARG A   1       2.008   3.096   0.000  0.00  0.00    +0.000 OA
ATOM      5  H   ARG A   1       0.456   2.319   0.000  0.00  0.00    +0.000 HD
BRANCH   3   6
ATOM      6  CA  ARG A   1       2.748   1.873   0.000  0.00  0.00    +0.000 C 
BRANCH   6   7
ATOM      7  N   ARG A   1       2.777   0.369   0.000  0.00  0.00    +0.000 N 
ATOM      8  C   ARG A   1       3.753  -0.168   0.000  0.00  0.00    +0.000 C 
ATOM      9  O   ARG A   1       3.770  -0.993   0.000  0.00  0.00    +0.000 OA
ATOM     10  H   ARG A   1       1.935  -0.140   0.000  0.00  0.00    +0.000 HD
BRANCH   8  11
ATOM     11  CA  ARG A   1       4.459   0.258   0.000  0.00  0.00    +0.000 C 
BRANCH  11  12
ATOM     12  N   ARG A   1       5.182  -0.140   0.000  0.00  0.00    +0.000 N 
ATOM     13  C   UNK A   0       5.888   0.287   0.000  0.00  0.00    +0.000 C 
ATOM     14  O   UNK A   0       6.611  -0.111   0.000  0.00  0.00    +0.000 OA
ATOM     15  H   ARG A   1       5.202  -1.124   0.000  0.00  0.00    +0.000 HD
BRANCH  13  16
ATOM     16  C   UNK A   0       5.871   1.112   0.000  0.00  0.00    +0.000 C 
BRANCH  16  17
ATOM     17  N   UNK A   0       6.577   1.539   0.000  0.00  0.00    +0.000 NA
ATOM     18  C   UNK A   0       6.561   2.364   0.000  0.00  0.00    +0.000 C 
ATOM     19  H   UNK A   0       7.471   1.046   0.000  0.00  0.00    +0.000 HD
ENDBRANCH  16  17
ENDBRANCH  13  16
ENDBRANCH  11  12
BRANCH  11  20
ATOM     20  CB  ARG A   1       4.443   1.083   0.000  0.00  0.00    +0.000 C 
BRANCH  20  21
ATOM     21  CG  ARG A   1       5.149   1.510   0.000  0.00  0.00    +0.000 C 
BRANCH  21  22
ATOM     22  CD  ARG A   1       5.132   2.335   0.000  0.00  0.00    +0.000 C 
BRANCH  22  23
ATOM     23  NE  ARG A   1       5.838   2.762   0.000  0.00  0.00    +0.000 N 
ATOM     24  CZ  ARG A   1       5.822   3.587   0.000  0.00  0.00    +0.000 C 
ATOM     25  NH1 ARG A   1       5.099   3.985   0.000  0.00  0.00    +0.000 NA
ATOM     26  NH2 ARG A   1       6.528   4.013   0.000  0.00  0.00    +0.000 N 
ATOM     27  HE  ARG A   1       6.701   2.287   0.000  0.00  0.00    +0.000 HD
ATOM     28  HH1 ARG A   1       5.080   4.969   0.000  0.00  0.00    +0.000 HD
ATOM     29 HH21 ARG A   1       7.390   3.538   0.000  0.00  0.00    +0.000 HD
ATOM     30 HH22 ARG A   1       6.508   4.998   0.000  0.00  0.00    +0.000 HD
ENDBRANCH  22  23
ENDBRANCH  21  22
ENDBRANCH  20  21
ENDBRANCH  11  20
ENDBRANCH   8  11
ENDBRANCH   6   7
BRANCH   6  31
ATOM     31  CB  ARG A   1       3.701   2.449   0.000  0.00  0.00    +0.000 C 
ATOM     32  CG1 ARG A   1       4.423   2.050   0.000  0.00  0.00    +0.000 C 
ATOM     33  CG2 ARG A   1       3.684   3.273   0.000  0.00  0.00    +0.000 C 
ENDBRANCH   6  31
ENDBRANCH   3   6
ENDBRANCH   1   2
BRANCH   1  34
ATOM     34  C   ARG A   1       0.629   0.592   0.000  0.00  0.00    +0.000 C 
ATOM     35  O   ARG A   1       0.646  -0.232   0.000  0.00  0.00    +0.000 OA
ATOM     36  N   ILE A   2      -0.093   0.991   0.000  0.00  0.00    +0.000 N 
ATOM     37  H   ILE A   2      -0.113   1.975   0.000  0.00  0.00    +0.000 HD
BRANCH  36  38
ATOM     38  CA  ILE A   2      -0.799   0.564   0.000  0.00  0.00    +0.000 C 
BRANCH  38  39
ATOM     39  C   ILE A   2      -0.783  -0.261   0.000  0.00  0.00    +0.000 C 
ATOM     40  N   HIS A   3      -1.489  -0.688   0.000  0.00  0.00    +0.000 N 
ATOM     41  O   ILE A   2      -0.060  -0.659   0.000  0.00  0.00    +0.000 OA
ATOM     42  H   HIS A   3      -2.351  -0.213   0.000  0.00  0.00    +0.000 HD
BRANCH  40  43
ATOM     43  CA  HIS A   3      -1.473  -1.513   0.000  0.00  0.00    +0.000 C 
BRANCH  43  44
ATOM     44  C   HIS A   3      -2.179  -1.939   0.000  0.00  0.00    +0.000 C 
ATOM     45  O   HIS A   3      -2.162  -2.764   0.000  0.00  0.00    +0.000 OA
ATOM     46  N   PRO A   4      -2.901  -1.541   0.000  0.00  0.00    +0.000 N 
ATOM     47  CA  PRO A   4      -3.648  -1.892   0.000  0.00  0.00    +0.000 C 
ATOM     48  CB  PRO A   4      -4.212  -1.290   0.000  0.00  0.00    +0.000 C 
ATOM     49  CG  PRO A   4      -3.814  -0.567   0.000  0.00  0.00    +0.000 C 
ATOM     50  CD  PRO A   4      -3.004  -0.723   0.000  0.00  0.00    +0.000 C 
BRANCH  47  51
ATOM     51  C   PRO A   4      -3.804  -2.702   0.000  0.00  0.00    +0.000 C 
ATOM     52  N   ALA A   5      -4.583  -2.973   0.000  0.00  0.00    +0.000 N 
ATOM     53  O   PRO A   4      -3.180  -3.242   0.000  0.00  0.00    +0.000 OA
ATOM     54  H   ALA A   5      -4.768  -3.939   0.000  0.00  0.00    +0.000 HD
BRANCH  52  55
ATOM     55  CA  ALA A   5      -5.207  -2.433   0.000  0.00  0.00    +0.000 C 
ATOM     56  CB  ALA A   5      -5.052  -1.623   0.000  0.00  0.00    +0.000 C 
BRANCH  55  57
ATOM     57  C   ALA A   5      -5.987  -2.704   0.000  0.00  0.00    +0.000 C 
ATOM     58  OXT ALA A   5      -6.142  -3.514   0.000  0.00  0.00    +0.000 OA
BRANCH  57  59
ATOM     59  O   ALA A   5      -6.611  -2.164   0.000  0.00  0.00    +0.000 OA
ATOM     60  H   ALA A   5      -6.434  -1.244   0.000  0.00  0.00    +0.000 HD
ENDBRANCH  57  59
ENDBRANCH  55  57
ENDBRANCH  52  55
ENDBRANCH  47  51
ENDBRANCH  43  44
BRANCH  43  61
ATOM     61  CB  HIS A   3      -0.750  -1.911   0.000  0.00  0.00    +0.000 C 
BRANCH  61  62
ATOM     62  CG  HIS A   3      -0.734  -2.736   0.000  0.00  0.00    +0.000 A 
ATOM     63  CD2 HIS A   3      -0.057  -3.207   0.000  0.00  0.00    +0.000 A 
ATOM     64  NE2 HIS A   3      -0.296  -3.997   0.000  0.00  0.00    +0.000 NA
ATOM     65  CE1 HIS A   3      -1.121  -4.013   0.000  0.00  0.00    +0.000 A 
ATOM     66  ND1 HIS A   3      -1.391  -3.234   0.000  0.00  0.00    +0.000 N 
ATOM     67  HD1 HIS A   3      -2.333  -2.948   0.000  0.00  0.00    +0.000 HD
ENDBRANCH  61  62
ENDBRANCH  43  61
ENDBRANCH  40  43
ENDBRANCH  38  39
BRANCH  38  68
ATOM     68  CB  ILE A   2      -1.522   0.962   0.000  0.00  0.00    +0.000 C 
ATOM     69  CG2 ILE A   2      -1.539   1.787   0.000  0.00  0.00    +0.000 C 
BRANCH  68  70
ATOM     70  CG1 ILE A   2      -2.228   0.535   0.000  0.00  0.00    +0.000 C 
ATOM     71  CD1 ILE A   2      -2.951   0.933   0.000  0.00  0.00    +0.000 C 
ENDBRANCH  68  70
ENDBRANCH  38  68
ENDBRANCH  36  38
ENDBRANCH   1  34
BRANCH   1  72
ATOM     72  CB  ARG A   1       2.058   0.621   0.000  0.00  0.00    +0.000 C 
BRANCH  72  73
ATOM     73  CG  ARG A   1       2.074  -0.204   0.000  0.00  0.00    +0.000 A 
ATOM     74  CD1 ARG A   1       1.368  -0.631   0.000  0.00  0.00    +0.000 A 
ATOM     75  CE1 ARG A   1       1.385  -1.455   0.000  0.00  0.00    +0.000 A 
ATOM     76  CZ  ARG A   1       2.107  -1.854   0.000  0.00  0.00    +0.000 A 
ATOM     77  CE2 ARG A   1       2.813  -1.427   0.000  0.00  0.00    +0.000 A 
ATOM     78  CD2 ARG A   1       2.797  -0.602   0.000  0.00  0.00    +0.000 A 
BRANCH  76  79
ATOM     79  OH  ARG A   1       2.124  -2.679   0.000  0.00  0.00    +0.000 OA
ATOM     80  HH  ARG A   1       1.322  -3.163   0.000  0.00  0.00    +0.000 HD
ENDBRANCH  76  79
ENDBRANCH  72  73
ENDBRANCH   1  72
TORSDOF 28
