REMARK  Name = 2742752
REMARK  5 active torsions:
REMARK  status: ('A' for Active; 'I' for Inactive)
REMARK    1  A    between atoms: S_1  and  N_8
REMARK    2  A    between atoms: S_1  and  C_14
REMARK    3  A    between atoms: N_7  and  C_13
REMARK    4  A    between atoms: N_8  and  C_10
REMARK    5  A    between atoms: C_12  and  C_15
REMARK                            x       y       z     vdW  Elec       q    Type
REMARK                         _______ _______ _______ _____ _____    ______ ____
ROOT
ATOM      1  N   UNL     1       1.133   0.604   0.351  0.00  0.00    +0.000 N 
ATOM      2  N   UNL     1       2.395   0.988   0.063  0.00  0.00    +0.000 NA
ATOM      3  C   UNL     1       1.035  -0.729   0.656  0.00  0.00    +0.000 A 
ATOM      4  C   UNL     1       2.307  -1.240   0.561  0.00  0.00    +0.000 A 
ATOM      5  C   UNL     1       3.102  -0.138   0.193  0.00  0.00    +0.000 A 
ENDROOT
BRANCH   1   7
ATOM      6  F   UNL     1      -2.997   4.251   0.229  0.00  0.00    +0.000 F 
ATOM      7  C   UNL     1       0.097   1.519   0.321  0.00  0.00    +0.000 A 
ATOM      8  C   UNL     1      -1.004   1.354   1.161  0.00  0.00    +0.000 A 
ATOM      9  C   UNL     1       0.153   2.607  -0.550  0.00  0.00    +0.000 A 
ATOM     10  C   UNL     1      -2.050   2.276   1.129  0.00  0.00    +0.000 A 
ATOM     11  C   UNL     1      -0.892   3.530  -0.582  0.00  0.00    +0.000 A 
ATOM     12  C   UNL     1      -1.994   3.364   0.258  0.00  0.00    +0.000 A 
ENDBRANCH   1   7
BRANCH   5  14
ATOM     13  S   UNL     1       5.481   1.201  -0.483  0.00  0.00    +0.000 S 
ATOM     14  C   UNL     1       4.558  -0.171  -0.035  0.00  0.00    +0.000 A 
ATOM     15  C   UNL     1       5.339  -1.301   0.085  0.00  0.00    +0.000 A 
ATOM     16  C   UNL     1       6.711  -1.036  -0.194  0.00  0.00    +0.000 A 
ATOM     17  C   UNL     1       6.928   0.286  -0.517  0.00  0.00    +0.000 A 
ENDBRANCH   5  14
BRANCH   3  18
ATOM     18  N   UNL     1      -0.164  -1.464   1.010  0.00  0.00    +0.000 N 
ATOM     19  H   UNL     1      -0.028  -2.008   1.873  0.00  0.00    +0.000 HD
BRANCH  18  20
ATOM     20  S   UNL     1      -0.893  -2.383  -0.259  0.00  0.00    +0.000 S 
ATOM     21  O   UNL     1      -0.862  -3.791   0.090  0.00  0.00    +0.000 OA
ATOM     22  O   UNL     1      -0.387  -1.932  -1.541  0.00  0.00    +0.000 OA
BRANCH  20  24
ATOM     23  F   UNL     1      -4.712   0.738  -1.522  0.00  0.00    +0.000 F 
ATOM     24  C   UNL     1      -2.574  -1.841  -0.152  0.00  0.00    +0.000 A 
ATOM     25  C   UNL     1      -2.978  -0.746  -0.894  0.00  0.00    +0.000 A 
ATOM     26  C   UNL     1      -3.451  -2.525   0.670  0.00  0.00    +0.000 A 
ATOM     27  C   UNL     1      -4.303  -0.321  -0.812  0.00  0.00    +0.000 A 
ATOM     28  C   UNL     1      -4.777  -2.100   0.753  0.00  0.00    +0.000 A 
ATOM     29  C   UNL     1      -5.203  -0.998   0.012  0.00  0.00    +0.000 A 
ENDBRANCH  20  24
ENDBRANCH  18  20
ENDBRANCH   3  18
TORSDOF 5
