REMARK  Name = 
REMARK  18 active torsions:
REMARK  status: ('A' for Active; 'I' for Inactive)
REMARK    1  A    between atoms: C_1  and  O_2
REMARK    2  A    between atoms: O_2  and  C_3
REMARK    3  A    between atoms: C_6  and  C_9
REMARK    4  A    between atoms: C_9  and  O_10
REMARK    5  A    between atoms: C_9  and  C_11
REMARK    6  A    between atoms: C_11  and  N_12
REMARK    7  A    between atoms: C_11  and  C_27
REMARK    8  A    between atoms: C_13  and  C_15
REMARK    9  A    between atoms: C_15  and  C_16
REMARK   10  A    between atoms: C_15  and  N_17
REMARK   11  A    between atoms: C_18  and  C_20
REMARK   12  A    between atoms: C_20  and  N_21
REMARK   13  A    between atoms: N_29  and  C_30
REMARK   14  A    between atoms: C_30  and  C_31
REMARK   15  A    between atoms: C_30  and  C_37
REMARK   16  A    between atoms: C_31  and  C_32
REMARK   17  A    between atoms: C_37  and  C_39
REMARK   18  A    between atoms: C_39  and  C_40
REMARK                            x       y       z     vdW  Elec       q    Type
REMARK                         _______ _______ _______ _____ _____    ______ ____
ROOT
ATOM      1  C   UNL     1       4.648   0.466   0.000  0.00  0.00    +0.000 C 
ENDROOT
BRANCH   1   2
ATOM      2  N   UNL     1       3.829   0.560   0.000  0.00  0.00    +0.000 N 
ATOM      3  C   UNL     1       3.337  -0.102   0.000  0.00  0.00    +0.000 C 
ATOM      4  O   UNL     1       3.665  -0.859   0.000  0.00  0.00    +0.000 OA
ATOM      5  H   UNL     1       3.438   1.464   0.000  0.00  0.00    +0.000 HD
BRANCH   3   6
ATOM      6  C   UNL     1       2.518  -0.007   0.000  0.00  0.00    +0.000 C 
ATOM      7  C   UNL     1       2.190   0.750   0.000  0.00  0.00    +0.000 C 
BRANCH   6   8
ATOM      8  N   UNL     1       2.026  -0.670   0.000  0.00  0.00    +0.000 N 
ATOM      9  C   UNL     1       1.206  -0.575   0.000  0.00  0.00    +0.000 C 
ATOM     10  O   UNL     1       0.878   0.182   0.000  0.00  0.00    +0.000 OA
ATOM     11  H   UNL     1       2.417  -1.573   0.000  0.00  0.00    +0.000 HD
BRANCH   9  12
ATOM     12  C   UNL     1       0.715  -1.238   0.000  0.00  0.00    +0.000 C 
BRANCH  12  13
ATOM     13  N   UNL     1      -0.105  -1.143   0.000  0.00  0.00    +0.000 NA
ATOM     14  C   UNL     1      -0.597  -1.805   0.000  0.00  0.00    +0.000 C 
ATOM     15  C   UNL     1      -1.416  -1.711   0.000  0.00  0.00    +0.000 C 
ATOM     16  O   UNL     1      -1.744  -0.954   0.000  0.00  0.00    +0.000 OA
ATOM     17  C   UNL     1      -1.252  -0.291   0.000  0.00  0.00    +0.000 C 
ATOM     18  C   UNL     1      -0.433  -0.386   0.000  0.00  0.00    +0.000 C 
ENDBRANCH  12  13
ENDBRANCH   9  12
ENDBRANCH   6   8
ENDBRANCH   3   6
ENDBRANCH   1   2
BRANCH   1  19
ATOM     19  C   UNL     1       4.976  -0.291   0.000  0.00  0.00    +0.000 C 
ATOM     20  O   UNL     1       4.484  -0.954   0.000  0.00  0.00    +0.000 OA
ATOM     21  N   UNL     1       5.796  -0.386   0.000  0.00  0.00    +0.000 N 
ATOM     22  H   UNL     1       6.383   0.405   0.000  0.00  0.00    +0.000 HD
BRANCH  21  23
ATOM     23  C   UNL     1       6.123  -1.143   0.000  0.00  0.00    +0.000 C 
BRANCH  23  24
ATOM     24  C   UNL     1       6.943  -1.238   0.000  0.00  0.00    +0.000 C 
ATOM     25  O   UNL     1       7.271  -1.995   0.000  0.00  0.00    +0.000 OA
BRANCH  24  26
ATOM     26  C   UNL     1       7.435  -0.575   0.000  0.00  0.00    +0.000 C 
ATOM     27  C   UNL     1       8.173  -0.944   0.000  0.00  0.00    +0.000 C 
ATOM     28  C   UNL     1       6.868   0.024   0.000  0.00  0.00    +0.000 C 
ATOM     29  O   UNL     1       7.670   0.216   0.000  0.00  0.00    +0.000 OA
ENDBRANCH  24  26
ENDBRANCH  23  24
BRANCH  23  30
ATOM     30  C   UNL     1       5.632  -1.805   0.000  0.00  0.00    +0.000 C 
BRANCH  30  31
ATOM     31  C   UNL     1       5.960  -2.562   0.000  0.00  0.00    +0.000 C 
ATOM     32  C   UNL     1       6.765  -2.742   0.000  0.00  0.00    +0.000 C 
ATOM     33  C   UNL     1       6.843  -3.563   0.000  0.00  0.00    +0.000 C 
ATOM     34  C   UNL     1       6.085  -3.891   0.000  0.00  0.00    +0.000 C 
ATOM     35  C   UNL     1       5.540  -3.273   0.000  0.00  0.00    +0.000 C 
ENDBRANCH  30  31
ENDBRANCH  23  30
ENDBRANCH  21  23
ENDBRANCH   1  19
BRANCH   1  36
ATOM     36  C   UNL     1       5.140   1.128   0.000  0.00  0.00    +0.000 C 
BRANCH  36  40
ATOM     37  C   UNL     1       4.157   3.400   0.000  0.00  0.00    +0.000 A 
ATOM     38  C   UNL     1       4.976   3.305   0.000  0.00  0.00    +0.000 A 
ATOM     39  C   UNL     1       5.304   2.548   0.000  0.00  0.00    +0.000 A 
ATOM     40  C   UNL     1       4.812   1.885   0.000  0.00  0.00    +0.000 A 
ATOM     41  C   UNL     1       3.993   1.980   0.000  0.00  0.00    +0.000 A 
ATOM     42  C   UNL     1       3.665   2.737   0.000  0.00  0.00    +0.000 A 
BRANCH  37  44
ATOM     43  C   UNL     1       3.009   4.251   0.000  0.00  0.00    +0.000 C 
ATOM     44  O   UNL     1       3.829   4.157   0.000  0.00  0.00    +0.000 OA
ENDBRANCH  37  44
ENDBRANCH  36  40
BRANCH  36  45
ATOM     45  O   UNL     1       5.960   1.034   0.000  0.00  0.00    +0.000 OA
ATOM     46  H   UNL     1       6.345   0.144   0.000  0.00  0.00    +0.000 HD
ENDBRANCH  36  45
ENDBRANCH   1  36
TORSDOF 15
