REMARK  Name = 43672
REMARK  10 active torsions:
REMARK  status: ('A' for Active; 'I' for Inactive)
REMARK    1  A    between atoms: O_3  and  C_21
REMARK    2  A    between atoms: N_10  and  CA_17
REMARK    3  A    between atoms: N_11  and  CA_23
REMARK    4  A    between atoms: N_13  and  C_34
REMARK    5  A    between atoms: C_15  and  C_19
REMARK    6  A    between atoms: C_15  and  C_20
REMARK    7  A    between atoms: CA_16  and  C_21
REMARK    8  A    between atoms: C_22  and  CA_23
REMARK    9  A    between atoms: CA_23  and  C_24
REMARK   10  A    between atoms: C_34  and  C_36
REMARK                            x       y       z     vdW  Elec       q    Type
REMARK                         _______ _______ _______ _____ _____    ______ ____
ROOT
ATOM      1  CA  UNL     1       0.556  -0.382   0.667  0.00  0.00    +0.000 C 
ENDROOT
BRANCH   1   5
ATOM      2  O   UNL     1       2.809  -0.690   2.356  0.00  0.00    +0.000 OA
ATOM      3  O   UNL     1       3.707   0.740  -1.513  0.00  0.00    +0.000 OA
ATOM      4  O   UNL     1       6.202   0.545  -2.287  0.00  0.00    +0.000 OA
ATOM      5  N   UNL     1       1.931  -0.124   0.307  0.00  0.00    +0.000 N 
ATOM      6  N   UNL     1       4.273  -0.011   0.654  0.00  0.00    +0.000 N 
ATOM      7  N   UNL     1       6.915   0.719  -0.073  0.00  0.00    +0.000 N 
ATOM      8  C   UNL     1       2.984  -0.300   1.198  0.00  0.00    +0.000 C 
ATOM      9  C   UNL     1       5.419  -0.328   1.504  0.00  0.00    +0.000 C 
ATOM     10  C   UNL     1       6.512   0.701   1.319  0.00  0.00    +0.000 C 
ATOM     11  C   UNL     1       4.534   0.436  -0.658  0.00  0.00    +0.000 C 
ATOM     12  C   UNL     1       5.979   0.566  -1.082  0.00  0.00    +0.000 C 
ATOM     13  H   UNL     1       2.124   0.175  -0.642  0.00  0.00    +0.000 HD
BRANCH   7  14
ATOM     14  C   UNL     1       8.312   0.989  -0.372  0.00  0.00    +0.000 C 
ATOM     15  C   UNL     1       8.584   2.477  -0.455  0.00  0.00    +0.000 C 
ENDBRANCH   7  14
ENDBRANCH   1   5
BRANCH   1  16
ATOM     16  C   UNL     1       0.156  -1.810   0.379  0.00  0.00    +0.000 A 
ATOM     17  C   UNL     1      -0.792  -2.444   1.182  0.00  0.00    +0.000 A 
ATOM     18  C   UNL     1       0.734  -2.494  -0.691  0.00  0.00    +0.000 A 
ATOM     19  C   UNL     1      -1.162  -3.762   0.915  0.00  0.00    +0.000 A 
ATOM     20  C   UNL     1       0.364  -3.812  -0.957  0.00  0.00    +0.000 A 
ATOM     21  C   UNL     1      -0.584  -4.446  -0.154  0.00  0.00    +0.000 A 
ENDBRANCH   1  16
BRANCH   1  24
ATOM     22  O   UNL     1      -0.086   1.001  -1.219  0.00  0.00    +0.000 OA
ATOM     23  N   UNL     1      -1.439   0.992   0.664  0.00  0.00    +0.000 N 
ATOM     24  C   UNL     1      -0.325   0.614  -0.076  0.00  0.00    +0.000 C 
ATOM     25  H   UNL     1      -1.549   0.606   1.599  0.00  0.00    +0.000 HD
BRANCH  23  32
ATOM     26  S   UNL     1      -3.437  -0.424  -1.213  0.00  0.00    +0.000 S 
ATOM     27  O   UNL     1      -3.923   2.330   2.192  0.00  0.00    +0.000 OA
ATOM     28  N   UNL     1      -4.511   1.582   0.032  0.00  0.00    +0.000 N 
ATOM     29  C   UNL     1      -3.426   1.384  -0.933  0.00  0.00    +0.000 C 
ATOM     30  C   UNL     1      -5.276  -0.496  -0.930  0.00  0.00    +0.000 C 
ATOM     31  CA  UNL     1      -5.515   0.547   0.183  0.00  0.00    +0.000 C 
ATOM     32  CA  UNL     1      -2.463   1.912   0.139  0.00  0.00    +0.000 C 
ATOM     33  C   UNL     1      -3.712   2.054   1.032  0.00  0.00    +0.000 C 
ATOM     34  C   UNL     1      -5.653  -1.903  -0.465  0.00  0.00    +0.000 C 
ATOM     35  C   UNL     1      -5.971  -0.178  -2.261  0.00  0.00    +0.000 C 
BRANCH  31  37
ATOM     36  OXT UNL     1      -7.124   2.206  -0.515  0.00  0.00    +0.000 OA
ATOM     37  C   UNL     1      -6.850   1.220   0.153  0.00  0.00    +0.000 C 
BRANCH  37  38
ATOM     38  O   UNL     1      -7.723   0.587   0.974  0.00  0.00    +0.000 OA
ATOM     39  H   UNL     1      -8.606   1.014   0.969  0.00  0.00    +0.000 HD
ENDBRANCH  37  38
ENDBRANCH  31  37
ENDBRANCH  23  32
ENDBRANCH   1  24
TORSDOF 7
