REMARK  Name = 
REMARK  19 active torsions:
REMARK  status: ('A' for Active; 'I' for Inactive)
REMARK    1  A    between atoms: C_1  and  C_2
REMARK    2  A    between atoms: C_2  and  C_3
REMARK    3  A    between atoms: C_3  and  O_5
REMARK    4  A    between atoms: O_5  and  C_6
REMARK    5  A    between atoms: C_6  and  O_7
REMARK    6  A    between atoms: C_6  and  C_37
REMARK    7  A    between atoms: O_7  and  P_8
REMARK    8  A    between atoms: P_8  and  C_10
REMARK    9  A    between atoms: P_8  and  C_20
REMARK   10  A    between atoms: C_10  and  C_11
REMARK   11  A    between atoms: C_11  and  C_12
REMARK   12  A    between atoms: C_12  and  C_13
REMARK   13  A    between atoms: C_13  and  C_14
REMARK   14  A    between atoms: C_20  and  C_21
REMARK   15  A    between atoms: C_25  and  C_26
REMARK   16  A    between atoms: C_33  and  C_34
REMARK   17  A    between atoms: C_34  and  O_36
REMARK   18  A    between atoms: C_37  and  C_38
REMARK   19  A    between atoms: C_37  and  C_39
REMARK                            x       y       z     vdW  Elec       q    Type
REMARK                         _______ _______ _______ _____ _____    ______ ____
ROOT
ATOM      1  P   UNL     1      -0.695   0.731   0.909  0.00  0.00    +0.000 P 
ATOM      2  O   UNL     1      -1.472   0.890   2.209  0.00  0.00    +0.000 OA
ENDROOT
BRANCH   1   3
ATOM      3  O   UNL     1      -0.174   2.180   0.276  0.00  0.00    +0.000 OA
BRANCH   3   4
ATOM      4  C   UNL     1      -1.294   2.736  -0.604  0.00  0.00    +0.000 C 
BRANCH   4   5
ATOM      5  C   UNL     1      -2.389   2.616   0.630  0.00  0.00    +0.000 C 
ATOM      6  C   UNL     1      -3.712   2.417  -0.070  0.00  0.00    +0.000 C 
ATOM      7  C   UNL     1      -2.374   3.763   1.508  0.00  0.00    +0.000 C 
ENDBRANCH   4   5
BRANCH   4   8
ATOM      8  O   UNL     1      -0.881   4.195  -0.258  0.00  0.00    +0.000 OA
BRANCH   8   9
ATOM      9  C   UNL     1      -1.621   5.165  -0.913  0.00  0.00    +0.000 C 
ATOM     10  O   UNL     1      -1.985   4.965  -2.091  0.00  0.00    +0.000 OA
BRANCH   9  12
ATOM     11  C   UNL     1      -1.723   6.776  -0.144  0.00  0.00    +0.000 C 
ATOM     12  C   UNL     1      -1.756   6.518  -0.285  0.00  0.00    +0.000 C 
ENDBRANCH   9  12
ENDBRANCH   8   9
ENDBRANCH   4   8
ENDBRANCH   3   4
ENDBRANCH   1   3
BRANCH   1  13
ATOM     13  C   UNL     1      -1.601  -0.289  -0.266  0.00  0.00    +0.000 C 
BRANCH  13  14
ATOM     14  C   UNL     1      -1.632  -1.741   0.137  0.00  0.00    +0.000 C 
BRANCH  14  15
ATOM     15  C   UNL     1      -3.017  -2.127   0.563  0.00  0.00    +0.000 C 
BRANCH  15  16
ATOM     16  C   UNL     1      -4.010  -1.353  -0.280  0.00  0.00    +0.000 C 
BRANCH  16  17
ATOM     17  C   UNL     1      -5.269  -2.140  -0.420  0.00  0.00    +0.000 A 
ATOM     18  C   UNL     1      -6.456  -1.422  -0.364  0.00  0.00    +0.000 A 
ATOM     19  C   UNL     1      -7.641  -2.083  -0.081  0.00  0.00    +0.000 A 
ATOM     20  C   UNL     1      -7.606  -3.350   0.455  0.00  0.00    +0.000 A 
ATOM     21  C   UNL     1      -6.459  -4.092   0.356  0.00  0.00    +0.000 A 
ATOM     22  C   UNL     1      -5.298  -3.460  -0.025  0.00  0.00    +0.000 A 
ENDBRANCH  16  17
ENDBRANCH  15  16
ENDBRANCH  14  15
ENDBRANCH  13  14
ENDBRANCH   1  13
BRANCH   1  23
ATOM     23  C   UNL     1       0.822  -0.100   1.504  0.00  0.00    +0.000 C 
BRANCH  23  24
ATOM     24  C   UNL     1       1.779  -0.335   0.398  0.00  0.00    +0.000 C 
ATOM     25  O   UNL     1       1.289  -1.071  -0.515  0.00  0.00    +0.000 OA
ATOM     26  N   UNL     1       3.162  -0.319   0.712  0.00  0.00    +0.000 N 
ATOM     27  C   UNL     1       3.857  -1.599   0.804  0.00  0.00    +0.000 C 
ATOM     28  C   UNL     1       3.724  -2.158  -0.720  0.00  0.00    +0.000 C 
ATOM     29  C   UNL     1       3.593  -0.706  -1.456  0.00  0.00    +0.000 C 
ATOM     30  C   UNL     1       4.275   0.199  -0.275  0.00  0.00    +0.000 C 
BRANCH  28  31
ATOM     31  C   UNL     1       5.324  -2.206  -1.018  0.00  0.00    +0.000 C 
ATOM     32  C   UNL     1       6.096  -2.289   0.224  0.00  0.00    +0.000 C 
ATOM     33  C   UNL     1       5.952  -3.659   0.878  0.00  0.00    +0.000 C 
ATOM     34  C   UNL     1       6.881  -4.549   0.058  0.00  0.00    +0.000 C 
ATOM     35  C   UNL     1       6.793  -4.181  -1.416  0.00  0.00    +0.000 C 
ATOM     36  C   UNL     1       5.479  -3.527  -1.765  0.00  0.00    +0.000 C 
ENDBRANCH  28  31
BRANCH  30  37
ATOM     37  C   UNL     1       3.487   1.553  -0.641  0.00  0.00    +0.000 C 
ATOM     38  O   UNL     1       4.256   2.522  -0.790  0.00  0.00    +0.000 OA
BRANCH  37  39
ATOM     39  O   UNL     1       2.291   1.532  -1.241  0.00  0.00    +0.000 OA
ATOM     40  H   UNL     1       1.720   0.799  -1.123  0.00  0.00    +0.000 HD
ENDBRANCH  37  39
ENDBRANCH  30  37
ENDBRANCH  23  24
ENDBRANCH   1  23
TORSDOF 16
