REMARK  Name = 40466974
REMARK  10 active torsions:
REMARK  status: ('A' for Active; 'I' for Inactive)
REMARK    1  A    between atoms: S_1  and  C_14
REMARK    2  A    between atoms: S_1  and  C_17
REMARK    3  A    between atoms: O_3  and  C_16
REMARK    4  A    between atoms: N_9  and  C_25
REMARK    5  A    between atoms: N_9  and  C_26
REMARK    6  A    between atoms: C_11  and  C_16
REMARK    7  A    between atoms: C_12  and  C_19
REMARK    8  A    between atoms: C_15  and  C_23
REMARK    9  A    between atoms: C_16  and  C_22
REMARK   10  A    between atoms: C_20  and  C_24
REMARK                            x       y       z     vdW  Elec       q    Type
REMARK                         _______ _______ _______ _____ _____    ______ ____
ROOT
ATOM      1  O   UNL     1       4.012   2.109   0.487  0.00  0.00    +0.000 OA
ATOM      2  N   UNL     1       2.489   0.576  -0.456  0.00  0.00    +0.000 N 
ATOM      3  C   UNL     1       2.769  -0.868  -0.339  0.00  0.00    +0.000 C 
ATOM      4  C   UNL     1       4.123  -0.440   0.312  0.00  0.00    +0.000 C 
ATOM      5  C   UNL     1       1.507  -1.431   0.345  0.00  0.00    +0.000 C 
ATOM      6  C   UNL     1       3.630   1.014   0.141  0.00  0.00    +0.000 C 
ATOM      7  C   UNL     1       0.578  -0.231   0.359  0.00  0.00    +0.000 C 
ATOM      8  C   UNL     1       1.210   0.868  -0.076  0.00  0.00    +0.000 C 
ATOM      9  C   UNL     1       1.760  -2.044   1.713  0.00  0.00    +0.000 C 
ENDROOT
BRANCH   8  12
ATOM     10  O   UNL     1       0.318   2.752   1.003  0.00  0.00    +0.000 OA
ATOM     11  O   UNL     1       0.613   2.801  -1.265  0.00  0.00    +0.000 OA
ATOM     12  C   UNL     1       0.659   2.280  -0.117  0.00  0.00    +0.000 C 
ENDBRANCH   8  12
BRANCH   4  13
ATOM     13  C   UNL     1       5.457  -0.726  -0.329  0.00  0.00    +0.000 C 
ATOM     14  C   UNL     1       6.627  -0.281   0.544  0.00  0.00    +0.000 C 
BRANCH  13  15
ATOM     15  O   UNL     1       5.580  -2.127  -0.582  0.00  0.00    +0.000 OA
ATOM     16  H   UNL     1       5.535  -2.587   0.273  0.00  0.00    +0.000 HD
ENDBRANCH  13  15
ENDBRANCH   4  13
BRANCH   7  17
ATOM     17  S   UNL     1      -1.053  -0.324   0.891  0.00  0.00    +0.000 S 
BRANCH  17  19
ATOM     18  N   UNL     1      -2.845  -0.132  -1.842  0.00  0.00    +0.000 N 
ATOM     19  C   UNL     1      -1.713  -1.534  -0.308  0.00  0.00    +0.000 C 
ATOM     20  C   UNL     1      -3.210  -1.767  -0.112  0.00  0.00    +0.000 C 
ATOM     21  C   UNL     1      -3.921  -0.726  -0.975  0.00  0.00    +0.000 C 
ATOM     22  C   UNL     1      -1.631  -1.001  -1.726  0.00  0.00    +0.000 C 
ATOM     23  H   UNL     1      -2.607   0.818  -1.522  0.00  0.00    +0.000 HD
ATOM     24  H   UNL     1      -3.151  -0.042  -2.821  0.00  0.00    +0.000 HD
BRANCH  21  27
ATOM     25  O   UNL     1      -4.195   1.506  -0.276  0.00  0.00    +0.000 OA
ATOM     26  N   UNL     1      -5.660  -0.056   0.628  0.00  0.00    +0.000 N 
ATOM     27  C   UNL     1      -4.596   0.343  -0.183  0.00  0.00    +0.000 C 
ATOM     28  C   UNL     1      -6.406   0.884   1.454  0.00  0.00    +0.000 C 
ATOM     29  C   UNL     1      -6.103  -1.446   0.708  0.00  0.00    +0.000 C 
ENDBRANCH  21  27
ENDBRANCH  17  19
ENDBRANCH   7  17
TORSDOF 6
