REMARK  Name = 3000540
REMARK  15 active torsions:
REMARK  status: ('A' for Active; 'I' for Inactive)
REMARK    1  A    between atoms: S_1  and  C_22
REMARK    2  A    between atoms: S_1  and  C_27
REMARK    3  A    between atoms: O_3  and  C_16
REMARK    4  A    between atoms: O_4  and  C_18
REMARK    5  A    between atoms: O_5  and  C_20
REMARK    6  A    between atoms: O_6  and  C_21
REMARK    7  A    between atoms: N_8  and  C_23
REMARK    8  A    between atoms: N_9  and  C_15
REMARK    9  A    between atoms: C_10  and  C_17
REMARK   10  A    between atoms: C_11  and  C_19
REMARK   11  A    between atoms: C_14  and  C_15
REMARK   12  A    between atoms: C_15  and  C_21
REMARK   13  A    between atoms: C_17  and  C_24
REMARK   14  A    between atoms: C_21  and  C_25
REMARK   15  A    between atoms: C_24  and  C_26
REMARK                            x       y       z     vdW  Elec       q    Type
REMARK                         _______ _______ _______ _____ _____    ______ ____
ROOT
ATOM      1  C   UNL     1       0.839   0.570   0.776  0.00  0.00    +0.000 C 
ENDROOT
BRANCH   1   3
ATOM      2  O   UNL     1       3.212   0.784   0.757  0.00  0.00    +0.000 OA
ATOM      3  C   UNL     1       2.111   0.273  -0.012  0.00  0.00    +0.000 C 
ATOM      4  C   UNL     1       2.285  -1.224  -0.294  0.00  0.00    +0.000 C 
ATOM      5  C   UNL     1       3.629  -1.482  -0.979  0.00  0.00    +0.000 C 
ATOM      6  C   UNL     1       4.765  -0.871  -0.159  0.00  0.00    +0.000 C 
ATOM      7  C   UNL     1       4.502   0.609   0.157  0.00  0.00    +0.000 C 
BRANCH   7   8
ATOM      8  S   UNL     1       4.781   1.740  -1.258  0.00  0.00    +0.000 S 
ATOM      9  C   UNL     1       4.972   3.267  -0.316  0.00  0.00    +0.000 C 
ENDBRANCH   7   8
BRANCH   4  10
ATOM     10  O   UNL     1       2.233  -1.938   0.944  0.00  0.00    +0.000 OA
ATOM     11  H   UNL     1       2.811  -1.488   1.583  0.00  0.00    +0.000 HD
ENDBRANCH   4  10
BRANCH   5  12
ATOM     12  O   UNL     1       3.846  -2.885  -1.108  0.00  0.00    +0.000 OA
ATOM     13  H   UNL     1       3.103  -3.250  -1.618  0.00  0.00    +0.000 HD
ENDBRANCH   5  12
BRANCH   6  14
ATOM     14  O   UNL     1       6.013  -1.030  -0.825  0.00  0.00    +0.000 OA
ATOM     15  H   UNL     1       6.697  -0.619  -0.269  0.00  0.00    +0.000 HD
ENDBRANCH   6  14
ENDBRANCH   1   3
BRANCH   1  17
ATOM     16  O   UNL     1      -1.582  -0.528   1.942  0.00  0.00    +0.000 OA
ATOM     17  N   UNL     1      -0.302   0.024   0.078  0.00  0.00    +0.000 N 
ATOM     18  C   UNL     1      -1.417  -0.479   0.726  0.00  0.00    +0.000 C 
ATOM     19  H   UNL     1      -0.311   0.084  -0.937  0.00  0.00    +0.000 HD
BRANCH  18  22
ATOM     20  N   UNL     1      -3.244  -1.985   0.465  0.00  0.00    +0.000 NA
ATOM     21  C   UNL     1      -4.773  -0.302   0.033  0.00  0.00    +0.000 C 
ATOM     22  C   UNL     1      -2.461  -0.957  -0.231  0.00  0.00    +0.000 C 
ATOM     23  C   UNL     1      -3.451   0.156  -0.580  0.00  0.00    +0.000 C 
ATOM     24  C   UNL     1      -4.632  -1.817   0.031  0.00  0.00    +0.000 C 
ATOM     25  C   UNL     1      -2.752  -3.336   0.229  0.00  0.00    +0.000 C 
BRANCH  21  26
ATOM     26  C   UNL     1      -5.995   0.191  -0.723  0.00  0.00    +0.000 C 
BRANCH  26  27
ATOM     27  C   UNL     1      -6.029   1.717  -0.799  0.00  0.00    +0.000 C 
ATOM     28  C   UNL     1      -7.266   2.211  -1.531  0.00  0.00    +0.000 C 
ENDBRANCH  26  27
ENDBRANCH  21  26
ENDBRANCH  18  22
ENDBRANCH   1  17
BRANCH   1  29
ATOM     29  C   UNL     1       0.661   2.073   1.061  0.00  0.00    +0.000 C 
ATOM     30  C   UNL     1       0.569   2.907  -0.212  0.00  0.00    +0.000 C 
BRANCH  29  31
ATOM     31  O   UNL     1      -0.515   2.313   1.829  0.00  0.00    +0.000 OA
ATOM     32  H   UNL     1      -0.551   3.265   2.027  0.00  0.00    +0.000 HD
ENDBRANCH  29  31
ENDBRANCH   1  29
TORSDOF 11
