REMARK  Name = 
REMARK  23 active torsions:
REMARK  status: ('A' for Active; 'I' for Inactive)
REMARK    1  A    between atoms: P_1  and  O_3
REMARK    2  A    between atoms: P_1  and  N_13
REMARK    3  A    between atoms: P_1  and  C_29
REMARK    4  A    between atoms: O_4  and  C_30
REMARK    5  A    between atoms: O_4  and  C_43
REMARK    6  A    between atoms: O_7  and  C_34
REMARK    7  A    between atoms: O_7  and  C_42
REMARK    8  A    between atoms: N_13  and  C_26
REMARK    9  A    between atoms: N_14  and  C_28
REMARK   10  A    between atoms: N_15  and  C_29
REMARK   11  A    between atoms: N_16  and  C_39
REMARK   12  A    between atoms: C_17  and  C_30
REMARK   13  A    between atoms: C_18  and  C_27
REMARK   14  A    between atoms: C_25  and  C_26
REMARK   15  A    between atoms: C_26  and  C_36
REMARK   16  A    between atoms: C_28  and  C_31
REMARK   17  A    between atoms: C_28  and  C_32
REMARK   18  A    between atoms: C_29  and  C_33
REMARK   19  A    between atoms: C_31  and  C_35
REMARK   20  A    between atoms: C_33  and  C_38
REMARK   21  A    between atoms: C_35  and  C_37
REMARK   22  A    between atoms: C_37  and  C_39
REMARK   23  A    between atoms: C_42  and  C_46
REMARK                            x       y       z     vdW  Elec       q    Type
REMARK                         _______ _______ _______ _____ _____    ______ ____
ROOT
ATOM      1  O   UNL     1      -0.126  -0.079   0.000  0.00  0.00    +0.000 OA
ATOM      2  N   UNL     1      -0.840  -1.316   0.000  0.00  0.00    +0.000 N 
ATOM      3  C   UNL     1      -0.126  -0.904   0.000  0.00  0.00    +0.000 C 
ATOM      4  H   UNL     1      -0.840  -1.828   0.000  0.00  0.00    +0.000 HD
ENDROOT
BRANCH   3   5
ATOM      5  C   UNL     1       0.589  -1.316   0.000  0.00  0.00    +0.000 C 
BRANCH   5   7
ATOM      6  O   UNL     1       2.018  -2.141   0.000  0.00  0.00    +0.000 OA
ATOM      7  N   UNL     1       1.303  -0.904   0.000  0.00  0.00    +0.000 N 
ATOM      8  C   UNL     1       2.018  -1.316   0.000  0.00  0.00    +0.000 C 
ATOM      9  H   UNL     1       1.303  -0.392   0.000  0.00  0.00    +0.000 HD
BRANCH   8  12
ATOM     10  O   UNL     1       1.421   0.214   0.000  0.00  0.00    +0.000 OA
ATOM     11  N   UNL     1       2.818  -0.083   0.000  0.00  0.00    +0.000 N 
ATOM     12  C   UNL     1       2.732  -0.904   0.000  0.00  0.00    +0.000 C 
ATOM     13  C   UNL     1       3.486  -1.239   0.000  0.00  0.00    +0.000 C 
ATOM     14  C   UNL     1       4.038  -0.626   0.000  0.00  0.00    +0.000 C 
ATOM     15  C   UNL     1       3.626   0.088   0.000  0.00  0.00    +0.000 C 
ATOM     16  C   UNL     1       2.205   0.469   0.000  0.00  0.00    +0.000 C 
BRANCH  16  17
ATOM     17  O   UNL     1       2.377   1.276   0.000  0.00  0.00    +0.000 OA
BRANCH  17  18
ATOM     18  C   UNL     1       3.162   1.531   0.000  0.00  0.00    +0.000 C 
BRANCH  18  19
ATOM     19  C   UNL     1       3.333   2.338   0.000  0.00  0.00    +0.000 A 
ATOM     20  C   UNL     1       2.720   2.890   0.000  0.00  0.00    +0.000 A 
ATOM     21  C   UNL     1       4.118   2.592   0.000  0.00  0.00    +0.000 A 
ATOM     22  C   UNL     1       2.892   3.697   0.000  0.00  0.00    +0.000 A 
ATOM     23  C   UNL     1       4.289   3.400   0.000  0.00  0.00    +0.000 A 
ATOM     24  C   UNL     1       3.676   3.951   0.000  0.00  0.00    +0.000 A 
ENDBRANCH  18  19
ENDBRANCH  17  18
ENDBRANCH  16  17
ENDBRANCH   8  12
ENDBRANCH   5   7
BRANCH   5  25
ATOM     25  C   UNL     1       0.589  -2.141   0.000  0.00  0.00    +0.000 C 
BRANCH  25  26
ATOM     26  C   UNL     1       1.303  -2.554   0.000  0.00  0.00    +0.000 C 
BRANCH  26  27
ATOM     27  C   UNL     1       1.303  -3.379   0.000  0.00  0.00    +0.000 C 
BRANCH  27  28
ATOM     28  C   UNL     1       2.018  -3.791   0.000  0.00  0.00    +0.000 C 
BRANCH  28  29
ATOM     29  N   UNL     1       2.018  -4.616   0.000  0.00  0.00    +0.000 N 
ATOM     30  H   UNL     1       1.506  -4.616   0.000  0.00  0.00    +0.000 HD
ATOM     31  H   UNL     1       2.529  -4.616   0.000  0.00  0.00    +0.000 HD
ATOM     32  H   UNL     1       2.018  -5.128   0.000  0.00  0.00    +0.000 HD
ENDBRANCH  28  29
ENDBRANCH  27  28
ENDBRANCH  26  27
ENDBRANCH  25  26
ENDBRANCH   5  25
ENDBRANCH   3   5
BRANCH   2  33
ATOM     33  C   UNL     1      -1.554  -0.904   0.000  0.00  0.00    +0.000 C 
BRANCH  33  34
ATOM     34  P   UNL     1      -1.554  -0.079   0.000  0.00  0.00    +0.000 P 
ATOM     35  O   UNL     1      -2.380  -0.079   0.000  0.00  0.00    +0.000 OA
BRANCH  34  36
ATOM     36  O   UNL     1      -0.730  -0.079   0.000  0.00  0.00    +0.000 OA
ATOM     37  H   UNL     1      -0.244  -0.919   0.000  0.00  0.00    +0.000 HD
ENDBRANCH  34  36
BRANCH  34  38
ATOM     38  N   UNL     1      -1.554   0.746   0.000  0.00  0.00    +0.000 NA
ATOM     39  H   UNL     1      -1.111   1.002   0.000  0.00  0.00    +0.000 HD
BRANCH  38  40
ATOM     40  C   UNL     1      -2.269   1.159   0.000  0.00  0.00    +0.000 C 
ATOM     41  C   UNL     1      -2.983   0.746   0.000  0.00  0.00    +0.000 C 
BRANCH  40  48
ATOM     42  O   UNL     1      -1.554   2.396   0.000  0.00  0.00    +0.000 OA
ATOM     43  N   UNL     1      -2.983   2.396   0.000  0.00  0.00    +0.000 N 
ATOM     44  C   UNL     1      -3.070   3.217   0.000  0.00  0.00    +0.000 C 
ATOM     45  C   UNL     1      -3.877   3.388   0.000  0.00  0.00    +0.000 C 
ATOM     46  C   UNL     1      -4.289   2.674   0.000  0.00  0.00    +0.000 C 
ATOM     47  C   UNL     1      -3.737   2.061   0.000  0.00  0.00    +0.000 C 
ATOM     48  C   UNL     1      -2.269   1.984   0.000  0.00  0.00    +0.000 C 
BRANCH  44  50
ATOM     49  O   UNL     1      -1.672   3.514   0.000  0.00  0.00    +0.000 OA
ATOM     50  C   UNL     1      -2.457   3.769   0.000  0.00  0.00    +0.000 C 
BRANCH  50  51
ATOM     51  O   UNL     1      -2.628   4.576   0.000  0.00  0.00    +0.000 OA
ATOM     52  C   UNL     1      -2.015   5.128   0.000  0.00  0.00    +0.000 C 
ENDBRANCH  50  51
ENDBRANCH  44  50
ENDBRANCH  40  48
ENDBRANCH  38  40
ENDBRANCH  34  38
ENDBRANCH  33  34
BRANCH  33  53
ATOM     53  C   UNL     1      -2.269  -1.316   0.000  0.00  0.00    +0.000 C 
BRANCH  53  54
ATOM     54  C   UNL     1      -2.269  -2.141   0.000  0.00  0.00    +0.000 A 
ATOM     55  C   UNL     1      -1.554  -2.554   0.000  0.00  0.00    +0.000 A 
ATOM     56  C   UNL     1      -2.983  -2.554   0.000  0.00  0.00    +0.000 A 
ATOM     57  C   UNL     1      -1.554  -3.379   0.000  0.00  0.00    +0.000 A 
ATOM     58  C   UNL     1      -2.983  -3.379   0.000  0.00  0.00    +0.000 A 
ATOM     59  C   UNL     1      -2.269  -3.791   0.000  0.00  0.00    +0.000 A 
ENDBRANCH  53  54
ENDBRANCH  33  53
ENDBRANCH   2  33
TORSDOF 21
