REMARK  Name = 448235
REMARK  16 active torsions:
REMARK  status: ('A' for Active; 'I' for Inactive)
REMARK    1  A    between atoms: O_1  and  C_15
REMARK    2  A    between atoms: O_1  and  C_27
REMARK    3  A    between atoms: O_2  and  C_13
REMARK    4  A    between atoms: O_3  and  C_14
REMARK    5  A    between atoms: O_4  and  C_16
REMARK    6  A    between atoms: O_5  and  C_19
REMARK    7  A    between atoms: N_8  and  C_10
REMARK    8  A    between atoms: C_14  and  C_15
REMARK    9  A    between atoms: C_14  and  C_16
REMARK   10  A    between atoms: C_15  and  C_20
REMARK   11  A    between atoms: C_16  and  C_19
REMARK   12  A    between atoms: C_19  and  C_22
REMARK   13  A    between atoms: C_21  and  C_23
REMARK   14  A    between atoms: C_21  and  C_24
REMARK   15  A    between atoms: C_21  and  C_25
REMARK   16  A    between atoms: C_21  and  C_26
REMARK                            x       y       z     vdW  Elec       q    Type
REMARK                         _______ _______ _______ _____ _____    ______ ____
ROOT
ATOM      1  C   UNL     1       0.235  -2.031   0.314  0.00  0.00    +0.000 C 
ENDROOT
BRANCH   1   4
ATOM      2  O   UNL     1      -1.056  -0.966   2.060  0.00  0.00    +0.000 OA
ATOM      3  N   UNL     1      -1.835  -0.853  -0.125  0.00  0.00    +0.000 N 
ATOM      4  C   UNL     1      -0.937  -1.225   0.864  0.00  0.00    +0.000 C 
ATOM      5  H   UNL     1      -1.632  -1.091  -1.092  0.00  0.00    +0.000 HD
BRANCH   3   8
ATOM      6  O   UNL     1      -3.837  -1.338  -1.768  0.00  0.00    +0.000 OA
ATOM      7  N   UNL     1      -5.362  -0.074  -0.645  0.00  0.00    +0.000 N 
ATOM      8  C   UNL     1      -3.035  -0.102   0.154  0.00  0.00    +0.000 C 
ATOM      9  C   UNL     1      -2.770   1.398   0.027  0.00  0.00    +0.000 C 
ATOM     10  C   UNL     1      -3.742   2.249   0.845  0.00  0.00    +0.000 C 
ATOM     11  C   UNL     1      -5.204   2.187   0.402  0.00  0.00    +0.000 C 
ATOM     12  C   UNL     1      -5.811   0.788   0.436  0.00  0.00    +0.000 C 
ATOM     13  C   UNL     1      -4.091  -0.571  -0.837  0.00  0.00    +0.000 C 
ATOM     14  H   UNL     1      -6.069  -0.379  -1.307  0.00  0.00    +0.000 HD
BRANCH  11  15
ATOM     15  O   UNL     1      -5.360   2.741  -0.901  0.00  0.00    +0.000 OA
ATOM     16  H   UNL     1      -4.998   3.643  -0.883  0.00  0.00    +0.000 HD
ENDBRANCH  11  15
ENDBRANCH   3   8
ENDBRANCH   1   4
BRANCH   1  17
ATOM     17  O   UNL     1       0.630  -2.994   1.279  0.00  0.00    +0.000 OA
ATOM     18  C   UNL     1      -0.221  -4.133   1.261  0.00  0.00    +0.000 C 
ENDBRANCH   1  17
BRANCH   1  19
ATOM     19  C   UNL     1       1.434  -1.138  -0.042  0.00  0.00    +0.000 C 
BRANCH  19  20
ATOM     20  O   UNL     1       1.164  -0.466  -1.281  0.00  0.00    +0.000 OA
ATOM     21  H   UNL     1       0.380   0.093  -1.145  0.00  0.00    +0.000 HD
ENDBRANCH  19  20
BRANCH  19  22
ATOM     22  C   UNL     1       2.754  -1.905  -0.250  0.00  0.00    +0.000 C 
BRANCH  22  23
ATOM     23  O   UNL     1       2.516  -2.940  -1.217  0.00  0.00    +0.000 OA
ATOM     24  H   UNL     1       3.281  -3.540  -1.200  0.00  0.00    +0.000 HD
ENDBRANCH  22  23
BRANCH  22  25
ATOM     25  C   UNL     1       3.952  -1.069  -0.741  0.00  0.00    +0.000 C 
BRANCH  25  26
ATOM     26  O   UNL     1       5.133  -1.872  -0.662  0.00  0.00    +0.000 OA
ATOM     27  H   UNL     1       5.052  -2.585  -1.318  0.00  0.00    +0.000 HD
ENDBRANCH  25  26
BRANCH  25  28
ATOM     28  C   UNL     1       4.120   0.244  -0.012  0.00  0.00    +0.000 C 
ATOM     29  C   UNL     1       4.117   1.469  -0.564  0.00  0.00    +0.000 C 
BRANCH  29  30
ATOM     30  C   UNL     1       4.280   2.804   0.150  0.00  0.00    +0.000 C 
ATOM     31  C   UNL     1       3.019   3.646  -0.112  0.00  0.00    +0.000 C 
ATOM     32  C   UNL     1       5.510   3.618  -0.295  0.00  0.00    +0.000 C 
ATOM     33  C   UNL     1       4.398   2.530   1.660  0.00  0.00    +0.000 C 
ENDBRANCH  29  30
ENDBRANCH  25  28
ENDBRANCH  22  25
ENDBRANCH  19  22
ENDBRANCH   1  19
TORSDOF 12
