REMARK  Name = 
REMARK  19 active torsions:
REMARK  status: ('A' for Active; 'I' for Inactive)
REMARK    1  A    between atoms: C_1  and  C_2
REMARK    2  A    between atoms: C_2  and  C_3
REMARK    3  A    between atoms: C_2  and  C_4
REMARK    4  A    between atoms: C_4  and  C_5
REMARK    5  A    between atoms: C_5  and  N_6
REMARK    6  A    between atoms: C_5  and  C_17
REMARK    7  A    between atoms: C_7  and  O_9
REMARK    8  A    between atoms: O_9  and  C_10
REMARK    9  A    between atoms: C_10  and  C_11
REMARK   10  A    between atoms: N_19  and  C_20
REMARK   11  A    between atoms: C_23  and  C_25
REMARK   12  A    between atoms: C_25  and  C_26
REMARK   13  A    between atoms: C_25  and  N_30
REMARK   14  A    between atoms: C_26  and  C_27
REMARK   15  A    between atoms: C_27  and  C_28
REMARK   16  A    between atoms: C_27  and  C_29
REMARK   17  A    between atoms: C_31  and  O_33
REMARK   18  A    between atoms: O_33  and  C_34
REMARK   19  A    between atoms: C_34  and  C_35
REMARK                            x       y       z     vdW  Elec       q    Type
REMARK                         _______ _______ _______ _____ _____    ______ ____
ROOT
ATOM      1  C   UNL     1       0.524  -0.541  -1.318  0.00  0.00    +0.000 C 
ATOM      2  C   UNL     1       0.486  -0.265   0.337  0.00  0.00    +0.000 C 
ATOM      3  N   UNL     1      -0.784  -0.944   0.594  0.00  0.00    +0.000 N 
ATOM      4  C   UNL     1      -2.040  -0.444   0.120  0.00  0.00    +0.000 C 
ATOM      5  O   UNL     1      -2.210   0.731  -0.279  0.00  0.00    +0.000 OA
ATOM      6  C   UNL     1      -0.347  -2.288   0.212  0.00  0.00    +0.000 C 
ATOM      7  C   UNL     1       0.085  -2.117  -1.148  0.00  0.00    +0.000 C 
ATOM      8  O   UNL     1       0.194  -2.794  -2.139  0.00  0.00    +0.000 OA
ENDROOT
BRANCH   1  11
ATOM      9  C   UNL     1       2.536  -1.669  -0.273  0.00  0.00    +0.000 C 
ATOM     10  O   UNL     1       2.384  -1.091   0.800  0.00  0.00    +0.000 OA
ATOM     11  N   UNL     1       2.084  -0.913  -1.362  0.00  0.00    +0.000 N 
ATOM     12  H   UNL     1       2.676  -0.633  -2.097  0.00  0.00    +0.000 HD
BRANCH   9  13
ATOM     13  C   UNL     1       4.005  -2.308  -0.601  0.00  0.00    +0.000 C 
BRANCH  13  14
ATOM     14  N   UNL     1       4.791  -1.294   0.368  0.00  0.00    +0.000 N 
ATOM     15  C   UNL     1       4.671   0.063  -0.082  0.00  0.00    +0.000 C 
ATOM     16  O   UNL     1       5.003   0.223  -1.295  0.00  0.00    +0.000 OA
ATOM     17  H   UNL     1       5.293  -1.570   1.169  0.00  0.00    +0.000 HD
BRANCH  15  18
ATOM     18  O   UNL     1       5.105   1.043   0.816  0.00  0.00    +0.000 OA
BRANCH  18  19
ATOM     19  C   UNL     1       5.013   2.395   0.391  0.00  0.00    +0.000 C 
BRANCH  19  20
ATOM     20  C   UNL     1       6.400   2.834   0.041  0.00  0.00    +0.000 A 
ATOM     21  C   UNL     1       6.665   4.172  -0.181  0.00  0.00    +0.000 A 
ATOM     22  C   UNL     1       7.933   4.653  -0.015  0.00  0.00    +0.000 A 
ATOM     23  C   UNL     1       8.979   3.765   0.129  0.00  0.00    +0.000 A 
ATOM     24  C   UNL     1       8.734   2.404   0.122  0.00  0.00    +0.000 A 
ATOM     25  C   UNL     1       7.442   1.943   0.021  0.00  0.00    +0.000 A 
ENDBRANCH  19  20
ENDBRANCH  18  19
ENDBRANCH  15  18
ENDBRANCH  13  14
BRANCH  13  26
ATOM     26  C   UNL     1       3.841  -3.425   0.640  0.00  0.00    +0.000 C 
BRANCH  26  28
ATOM     27  C   UNL     1       5.310  -4.490  -0.374  0.00  0.00    +0.000 C 
ATOM     28  C   UNL     1       4.530  -4.627   0.021  0.00  0.00    +0.000 C 
ATOM     29  C   UNL     1       3.529  -5.603  -0.580  0.00  0.00    +0.000 C 
ENDBRANCH  26  28
ENDBRANCH  13  26
ENDBRANCH   9  13
ENDBRANCH   1  11
BRANCH   4  30
ATOM     30  C   UNL     1      -3.308  -0.968   1.026  0.00  0.00    +0.000 C 
BRANCH  30  31
ATOM     31  N   UNL     1      -4.294  -0.837  -0.237  0.00  0.00    +0.000 N 
ATOM     32  C   UNL     1      -5.350   0.088  -0.011  0.00  0.00    +0.000 C 
ATOM     33  O   UNL     1      -5.767   0.338   1.153  0.00  0.00    +0.000 OA
ATOM     34  H   UNL     1      -4.180  -1.342  -1.075  0.00  0.00    +0.000 HD
BRANCH  32  35
ATOM     35  O   UNL     1      -5.903   0.926  -0.983  0.00  0.00    +0.000 OA
BRANCH  35  36
ATOM     36  C   UNL     1      -5.944   2.327  -0.809  0.00  0.00    +0.000 C 
BRANCH  36  37
ATOM     37  C   UNL     1      -7.264   2.854  -0.427  0.00  0.00    +0.000 A 
ATOM     38  C   UNL     1      -7.538   4.116  -0.951  0.00  0.00    +0.000 A 
ATOM     39  C   UNL     1      -8.627   4.852  -0.521  0.00  0.00    +0.000 A 
ATOM     40  C   UNL     1      -9.251   4.433   0.644  0.00  0.00    +0.000 A 
ATOM     41  C   UNL     1      -8.628   3.519   1.470  0.00  0.00    +0.000 A 
ATOM     42  C   UNL     1      -7.622   2.764   0.916  0.00  0.00    +0.000 A 
ENDBRANCH  36  37
ENDBRANCH  35  36
ENDBRANCH  32  35
ENDBRANCH  30  31
BRANCH  30  43
ATOM     43  C   UNL     1      -2.946  -2.564   0.696  0.00  0.00    +0.000 C 
BRANCH  43  44
ATOM     44  C   UNL     1      -4.204  -3.214   0.251  0.00  0.00    +0.000 C 
ATOM     45  C   UNL     1      -4.206  -4.623   0.837  0.00  0.00    +0.000 C 
ATOM     46  C   UNL     1      -4.011  -3.423  -1.249  0.00  0.00    +0.000 C 
ENDBRANCH  43  44
ENDBRANCH  30  43
ENDBRANCH   4  30
TORSDOF 15
