REMARK  Name = 122623
REMARK  5 active torsions:
REMARK  status: ('A' for Active; 'I' for Inactive)
REMARK    1  A    between atoms: O_2  and  C_17
REMARK    2  A    between atoms: O_2  and  C_18
REMARK    3  A    between atoms: C_7  and  C_13
REMARK    4  A    between atoms: C_9  and  C_16
REMARK    5  A    between atoms: C_18  and  C_19
REMARK                            x       y       z     vdW  Elec       q    Type
REMARK                         _______ _______ _______ _____ _____    ______ ____
ROOT
ATOM      1  O   UNL     1      -0.097   3.773  -0.882  0.00  0.00    +0.000 OA
ATOM      2  N   UNL     1      -1.545   2.225   0.046  0.00  0.00    +0.000 N 
ATOM      3  C   UNL     1      -1.738   0.990   0.792  0.00  0.00    +0.000 C 
ATOM      4  C   UNL     1      -3.116   1.138   1.427  0.00  0.00    +0.000 C 
ATOM      5  C   UNL     1      -3.863   2.046   0.452  0.00  0.00    +0.000 C 
ATOM      6  C   UNL     1      -2.781   2.995  -0.042  0.00  0.00    +0.000 C 
ATOM      7  C   UNL     1      -0.302   2.671  -0.378  0.00  0.00    +0.000 C 
ENDROOT
BRANCH   3  13
ATOM      8  O   UNL     1      -2.068   0.047  -1.361  0.00  0.00    +0.000 OA
ATOM      9  N   UNL     1      -1.237  -1.346   0.290  0.00  0.00    +0.000 N 
ATOM     10  C   UNL     1      -0.982  -2.492  -0.572  0.00  0.00    +0.000 C 
ATOM     11  C   UNL     1      -0.789  -1.604   1.657  0.00  0.00    +0.000 C 
ATOM     12  C   UNL     1      -0.083  -3.405   0.253  0.00  0.00    +0.000 C 
ATOM     13  C   UNL     1      -1.698  -0.134  -0.199  0.00  0.00    +0.000 C 
ATOM     14  C   UNL     1      -0.486  -3.094   1.693  0.00  0.00    +0.000 C 
BRANCH  10  16
ATOM     15  O   UNL     1      -2.439  -4.129  -1.561  0.00  0.00    +0.000 OA
ATOM     16  C   UNL     1      -2.308  -3.131  -0.861  0.00  0.00    +0.000 C 
ENDBRANCH  10  16
ENDBRANCH   3  13
BRANCH   7  17
ATOM     17  O   UNL     1       0.676   1.736  -0.169  0.00  0.00    +0.000 OA
BRANCH  17  18
ATOM     18  C   UNL     1       1.998   2.109  -0.576  0.00  0.00    +0.000 C 
BRANCH  18  19
ATOM     19  C   UNL     1       2.939   0.979  -0.278  0.00  0.00    +0.000 A 
ATOM     20  C   UNL     1       3.578   0.923   0.956  0.00  0.00    +0.000 A 
ATOM     21  C   UNL     1       3.164  -0.002  -1.238  0.00  0.00    +0.000 A 
ATOM     22  C   UNL     1       4.453  -0.128   1.233  0.00  0.00    +0.000 A 
ATOM     23  C   UNL     1       4.039  -1.052  -0.960  0.00  0.00    +0.000 A 
ATOM     24  C   UNL     1       4.684  -1.115   0.276  0.00  0.00    +0.000 A 
ENDBRANCH  18  19
ENDBRANCH  17  18
ENDBRANCH   7  17
TORSDOF 5
