REMARK  Name = 1082
REMARK  15 active torsions:
REMARK  status: ('A' for Active; 'I' for Inactive)
REMARK    1  A    between atoms: SG_1  and  CB_17
REMARK    2  A    between atoms: SG_1  and  C_21
REMARK    3  A    between atoms: O_4  and  C_19
REMARK    4  A    between atoms: O_6  and  C_21
REMARK    5  A    between atoms: O_7  and  C_22
REMARK    6  A    between atoms: N_9  and  CA_12
REMARK    7  A    between atoms: N_10  and  CA_20
REMARK    8  A    between atoms: N_11  and  CA_15
REMARK    9  A    between atoms: CA_12  and  CB_17
REMARK   10  A    between atoms: CA_12  and  C_18
REMARK   11  A    between atoms: C_13  and  C_14
REMARK   12  A    between atoms: C_13  and  CA_15
REMARK   13  A    between atoms: C_14  and  C_16
REMARK   14  A    between atoms: CA_15  and  C_19
REMARK   15  A    between atoms: CA_20  and  C_22
REMARK                            x       y       z     vdW  Elec       q    Type
REMARK                         _______ _______ _______ _____ _____    ______ ____
ROOT
ATOM      1  CA  UNL     1      -0.997   0.227  -0.809  0.00  0.00    +0.000 C 
ENDROOT
BRANCH   1   3
ATOM      2  O   UNL     1       1.562   0.968  -1.919  0.00  0.00    +0.000 OA
ATOM      3  N   UNL     1       0.297   0.090  -0.180  0.00  0.00    +0.000 N 
ATOM      4  C   UNL     1       1.478   0.477  -0.796  0.00  0.00    +0.000 C 
ATOM      5  H   UNL     1       0.333  -0.288   0.763  0.00  0.00    +0.000 HD
BRANCH   4   6
ATOM      6  C   UNL     1       2.683   0.210   0.089  0.00  0.00    +0.000 C 
BRANCH   6   7
ATOM      7  C   UNL     1       3.997   0.630  -0.573  0.00  0.00    +0.000 C 
BRANCH   7   8
ATOM      8  CA  UNL     1       5.213   0.433   0.340  0.00  0.00    +0.000 C 
BRANCH   8   9
ATOM      9  N   UNL     1       6.426   0.856  -0.363  0.00  0.00    +0.000 NA
ATOM     10  H1  UNL     1       7.224   0.803   0.270  0.00  0.00    +0.000 HD
ATOM     11  H2  UNL     1       6.342   1.836  -0.630  0.00  0.00    +0.000 HD
ENDBRANCH   8   9
BRANCH   8  13
ATOM     12  OXT UNL     1       6.023  -1.844   0.021  0.00  0.00    +0.000 OA
ATOM     13  C   UNL     1       5.404  -1.030   0.696  0.00  0.00    +0.000 C 
BRANCH  13  14
ATOM     14  O   UNL     1       4.780  -1.363   1.856  0.00  0.00    +0.000 OA
ATOM     15  H   UNL     1       4.896  -2.313   2.073  0.00  0.00    +0.000 HD
ENDBRANCH  13  14
ENDBRANCH   8  13
ENDBRANCH   7   8
ENDBRANCH   6   7
ENDBRANCH   4   6
ENDBRANCH   1   3
BRANCH   1  18
ATOM     16  O   UNL     1      -1.536  -1.776   0.452  0.00  0.00    +0.000 OA
ATOM     17  N   UNL     1      -3.086  -0.968  -1.073  0.00  0.00    +0.000 N 
ATOM     18  C   ACE A   1      -1.880  -0.945  -0.386  0.00  0.00    +0.000 C 
ATOM     19  H   UNL     1      -3.285  -0.252  -1.765  0.00  0.00    +0.000 HD
BRANCH  17  20
ATOM     20  CA  UNL     1      -4.081  -1.994  -0.866  0.00  0.00    +0.000 C 
BRANCH  20  22
ATOM     21  OXT UNL     1      -5.986  -2.383   0.553  0.00  0.00    +0.000 OA
ATOM     22  C   UNL     1      -5.069  -1.644   0.217  0.00  0.00    +0.000 C 
BRANCH  22  23
ATOM     23  O   UNL     1      -4.846  -0.435   0.782  0.00  0.00    +0.000 OA
ATOM     24  H   UNL     1      -5.502  -0.230   1.483  0.00  0.00    +0.000 HD
ENDBRANCH  22  23
ENDBRANCH  20  22
ENDBRANCH  17  20
ENDBRANCH   1  18
BRANCH   1  25
ATOM     25  CB  UNL     1      -1.627   1.594  -0.536  0.00  0.00    +0.000 C 
BRANCH  25  26
ATOM     26  SG  UNL     1      -2.026   1.883   1.219  0.00  0.00    +0.000 S 
BRANCH  26  27
ATOM     27  C   UNL     1      -2.793   3.513   1.058  0.00  0.00    +0.000 C 
BRANCH  27  28
ATOM     28  O   UNL     1      -3.935   3.501   0.216  0.00  0.00    +0.000 OA
ATOM     29  H   UNL     1      -4.282   4.409   0.194  0.00  0.00    +0.000 HD
ENDBRANCH  27  28
ENDBRANCH  26  27
ENDBRANCH  25  26
ENDBRANCH   1  25
TORSDOF 15
