REMARK  Name = 
REMARK  16 active torsions:
REMARK  status: ('A' for Active; 'I' for Inactive)
REMARK    1  A    between atoms: C_1  and  AS_2
REMARK    2  A    between atoms: AS_2  and  C_3
REMARK    3  A    between atoms: AS_2  and  S_4
REMARK    4  A    between atoms: S_4  and  C_5
REMARK    5  A    between atoms: C_5  and  C_6
REMARK    6  A    between atoms: C_6  and  C_7
REMARK    7  A    between atoms: C_6  and  N_14
REMARK    8  A    between atoms: N_9  and  CA_10
REMARK    9  A    between atoms: CA_10  and  C_11
REMARK   10  A    between atoms: C_11  and  OXT_13
REMARK   11  A    between atoms: C_15  and  C_17
REMARK   12  A    between atoms: C_17  and  C_18
REMARK   13  A    between atoms: C_18  and  C_19
REMARK   14  A    between atoms: C_19  and  C_20
REMARK   15  A    between atoms: C_19  and  N_23
REMARK   16  A    between atoms: C_20  and  O_22
REMARK                            x       y       z     vdW  Elec       q    Type
REMARK                         _______ _______ _______ _____ _____    ______ ____
ROOT
ATOM      1  C   UNK A   1       9.045   3.572   0.000  0.00  0.00    +0.000 C 
ENDROOT
BRANCH   1   2
ATOM      2  C   UNK A   1       8.331   3.985   0.000  0.00  0.00    +0.000 C 
ATOM      3  O   UNK A   1       8.331   4.810   0.000  0.00  0.00    +0.000 OA
ATOM      4  N   GLY A   2       7.616   3.572   0.000  0.00  0.00    +0.000 N 
ATOM      5  H   GLY A   2       7.616   2.588   0.000  0.00  0.00    +0.000 HD
BRANCH   4   6
ATOM      6  CA  GLY A   2       6.902   3.985   0.000  0.00  0.00    +0.000 C 
BRANCH   6   7
ATOM      7  C   GLY A   2       6.188   3.572   0.000  0.00  0.00    +0.000 C 
ATOM      8  O   GLY A   2       5.473   3.985   0.000  0.00  0.00    +0.000 OA
BRANCH   7   9
ATOM      9  OXT GLY A   2       6.188   2.747   0.000  0.00  0.00    +0.000 OA
ATOM     10  HXT GLY A   2       5.376   2.279   0.000  0.00  0.00    +0.000 HD
ENDBRANCH   7   9
ENDBRANCH   6   7
ENDBRANCH   4   6
ENDBRANCH   1   2
BRANCH   1  11
ATOM     11  N   UNK A   1       9.760   3.985   0.000  0.00  0.00    +0.000 N 
ATOM     12  C   UNK A   1      10.474   3.572   0.000  0.00  0.00    +0.000 C 
ATOM     13  O   UNK A   1      10.474   2.747   0.000  0.00  0.00    +0.000 OA
ATOM     14  H   UNK A   1       9.760   4.969   0.000  0.00  0.00    +0.000 HD
BRANCH  12  15
ATOM     15  C   UNK A   1      11.189   3.985   0.000  0.00  0.00    +0.000 C 
BRANCH  15  16
ATOM     16  C   UNK A   1      11.903   3.572   0.000  0.00  0.00    +0.000 C 
BRANCH  16  17
ATOM     17  C   UNK A   1      12.618   3.985   0.000  0.00  0.00    +0.000 C 
BRANCH  17  18
ATOM     18  N   UNK A   1      12.618   4.810   0.000  0.00  0.00    +0.000 NA
ATOM     19  H   UNK A   1      13.501   5.320   0.000  0.00  0.00    +0.000 HD
ATOM     20  H   UNK A   1      11.734   5.320   0.000  0.00  0.00    +0.000 HD
ENDBRANCH  17  18
BRANCH  17  21
ATOM     21  C   UNK A   1      13.332   3.572   0.000  0.00  0.00    +0.000 C 
ATOM     22  O   UNK A   1      14.047   3.985   0.000  0.00  0.00    +0.000 OA
BRANCH  21  23
ATOM     23  O   UNK A   1      13.332   2.747   0.000  0.00  0.00    +0.000 OA
ATOM     24  H   UNK A   1      12.521   2.279   0.000  0.00  0.00    +0.000 HD
ENDBRANCH  21  23
ENDBRANCH  17  21
ENDBRANCH  16  17
ENDBRANCH  15  16
ENDBRANCH  12  15
ENDBRANCH   1  11
BRANCH   1  25
ATOM     25  C   UNK A   1       9.045   2.747   0.000  0.00  0.00    +0.000 C 
BRANCH  25  26
ATOM     26  S   UNK A   1       9.760   2.335   0.000  0.00  0.00    +0.000 S 
BRANCH  26  28
ATOM     27  C   UNK A   1      10.474   1.097   0.000  0.00  0.00    +0.000 C 
ATOM     28 AS   UNK A   1       9.760   1.510   0.000  0.00  0.00    +0.000 As
ATOM     29  C   UNK A   1       9.045   1.097   0.000  0.00  0.00    +0.000 C 
ENDBRANCH  26  28
ENDBRANCH  25  26
ENDBRANCH   1  25
TORSDOF 14
