REMARK  Name = 23629654
REMARK  7 active torsions:
REMARK  status: ('A' for Active; 'I' for Inactive)
REMARK    1  A    between atoms: N_4  and  C_8
REMARK    2  A    between atoms: N_4  and  C_17
REMARK    3  A    between atoms: N_5  and  C_20
REMARK    4  A    between atoms: C_13  and  C_19
REMARK    5  A    between atoms: C_17  and  C_18
REMARK    6  A    between atoms: C_20  and  C_21
REMARK    7  A    between atoms: C_26  and  C_27
REMARK                            x       y       z     vdW  Elec       q    Type
REMARK                         _______ _______ _______ _____ _____    ______ ____
ROOT
ATOM      1  O   UNL     1       0.308   2.230   1.420  0.00  0.00    +0.000 OA
ATOM      2  N   UNL     1       1.799   2.663  -0.315  0.00  0.00    +0.000 N 
ATOM      3  C   UNL     1       0.544   2.558   0.260  0.00  0.00    +0.000 C 
ATOM      4  H   UNL     1       1.879   2.939  -1.289  0.00  0.00    +0.000 HD
ENDROOT
BRANCH   3   7
ATOM      5  O   UNL     1      -1.037   0.126  -1.151  0.00  0.00    +0.000 OA
ATOM      6  N   UNL     1      -1.733   2.164  -0.304  0.00  0.00    +0.000 N 
ATOM      7  C   UNL     1      -0.551   2.920  -0.698  0.00  0.00    +0.000 C 
ATOM      8  C   UNL     1      -0.962   4.381  -0.560  0.00  0.00    +0.000 C 
ATOM      9  C   UNL     1      -2.734   3.033   0.309  0.00  0.00    +0.000 C 
ATOM     10  C   UNL     1      -2.013   4.352   0.546  0.00  0.00    +0.000 C 
ATOM     11  C   UNL     1      -1.906   0.829  -0.633  0.00  0.00    +0.000 C 
BRANCH  11  12
ATOM     12  C   UNL     1      -3.259   0.249  -0.305  0.00  0.00    +0.000 C 
BRANCH  12  13
ATOM     13  N   UNL     1      -3.216  -1.137  -0.715  0.00  0.00    +0.000 NA
ATOM     14  H   UNL     1      -3.017  -1.199  -1.714  0.00  0.00    +0.000 HD
BRANCH  13  15
ATOM     15  C   UNL     1      -4.472  -1.809  -0.436  0.00  0.00    +0.000 C 
ATOM     16  C   UNL     1      -4.786  -1.878   1.053  0.00  0.00    +0.000 C 
ATOM     17  C   UNL     1      -4.455  -3.280  -0.834  0.00  0.00    +0.000 C 
ATOM     18  C   UNL     1      -5.848  -2.970   1.148  0.00  0.00    +0.000 C 
ATOM     19  C   UNL     1      -5.635  -3.874  -0.069  0.00  0.00    +0.000 C 
ENDBRANCH  13  15
ENDBRANCH  12  13
ENDBRANCH  11  12
ENDBRANCH   3   7
BRANCH   2  20
ATOM     20  C   UNL     1       3.023   2.391   0.404  0.00  0.00    +0.000 C 
BRANCH  20  21
ATOM     21  C   UNL     1       3.431   0.947   0.290  0.00  0.00    +0.000 A 
ATOM     22  C   UNL     1       4.256   0.549  -0.753  0.00  0.00    +0.000 A 
ATOM     23  C   UNL     1       2.975   0.032   1.230  0.00  0.00    +0.000 A 
ATOM     24  C   UNL     1       4.632  -0.790  -0.859  0.00  0.00    +0.000 A 
ATOM     25  C   UNL     1       3.351  -1.307   1.124  0.00  0.00    +0.000 A 
ATOM     26  C   UNL     1       4.179  -1.718   0.080  0.00  0.00    +0.000 A 
BRANCH  26  29
ATOM     27  N   UNL     1       5.400  -3.556  -1.060  0.00  0.00    +0.000 N 
ATOM     28  N   UNL     1       4.139  -3.991   0.859  0.00  0.00    +0.000 NA
ATOM     29  C   UNL     1       4.572  -3.114  -0.029  0.00  0.00    +0.000 C 
ATOM     30  H   UNL     1       5.776  -2.952  -1.780  0.00  0.00    +0.000 HD
ATOM     31  H   UNL     1       5.662  -4.535  -1.120  0.00  0.00    +0.000 HD
ATOM     32  H   UNL     1       4.519  -4.912   0.614  0.00  0.00    +0.000 HD
ENDBRANCH  26  29
ENDBRANCH  20  21
ENDBRANCH   2  20
TORSDOF 7
