REMARK  Name = 25113617
REMARK  9 active torsions:
REMARK  status: ('A' for Active; 'I' for Inactive)
REMARK    1  A    between atoms: N_4  and  C_16
REMARK    2  A    between atoms: C_7  and  C_12
REMARK    3  A    between atoms: C_11  and  C_13
REMARK    4  A    between atoms: C_13  and  C_14
REMARK    5  A    between atoms: C_14  and  C_15
REMARK    6  A    between atoms: C_15  and  C_17
REMARK    7  A    between atoms: C_15  and  C_18
REMARK    8  A    between atoms: C_16  and  C_19
REMARK    9  A    between atoms: C_24  and  C_25
REMARK                            x       y       z     vdW  Elec       q    Type
REMARK                         _______ _______ _______ _____ _____    ______ ____
ROOT
ATOM      1  O   UNL     1       0.380  -0.212  -0.869  0.00  0.00    +0.000 OA
ATOM      2  N   UNL     1      -0.577  -1.019   1.093  0.00  0.00    +0.000 N 
ATOM      3  C   UNL     1       0.286  -0.227   0.355  0.00  0.00    +0.000 C 
ATOM      4  H   UNL     1      -0.593  -0.928   2.105  0.00  0.00    +0.000 HD
ENDROOT
BRANCH   3   7
ATOM      5  O   UNL     1       3.313  -1.162   0.963  0.00  0.00    +0.000 OA
ATOM      6  N   UNL     1       2.371   0.906   0.522  0.00  0.00    +0.000 N 
ATOM      7  C   UNL     1       1.116   0.670   1.223  0.00  0.00    +0.000 C 
ATOM      8  C   UNL     1       0.489   2.052   1.371  0.00  0.00    +0.000 C 
ATOM      9  C   UNL     1       1.025   2.816   0.162  0.00  0.00    +0.000 C 
ATOM     10  C   UNL     1       2.435   2.269   0.000  0.00  0.00    +0.000 C 
ATOM     11  C   UNL     1       3.404  -0.018   0.513  0.00  0.00    +0.000 C 
BRANCH  11  12
ATOM     12  C   UNL     1       4.694   0.455  -0.108  0.00  0.00    +0.000 C 
BRANCH  12  13
ATOM     13  C   UNL     1       5.719  -0.666  -0.039  0.00  0.00    +0.000 C 
BRANCH  13  14
ATOM     14  C   UNL     1       7.096  -0.252  -0.586  0.00  0.00    +0.000 C 
ATOM     15  C   UNL     1       7.036   0.179  -2.052  0.00  0.00    +0.000 C 
ATOM     16  C   UNL     1       8.088  -1.408  -0.427  0.00  0.00    +0.000 C 
ENDBRANCH  13  14
ENDBRANCH  12  13
ENDBRANCH  11  12
ENDBRANCH   3   7
BRANCH   2  17
ATOM     17  C   UNL     1      -1.500  -1.955   0.493  0.00  0.00    +0.000 C 
BRANCH  17  18
ATOM     18  C   UNL     1      -2.829  -1.321   0.197  0.00  0.00    +0.000 A 
ATOM     19  C   UNL     1      -3.727  -1.068   1.234  0.00  0.00    +0.000 A 
ATOM     20  C   UNL     1      -3.165  -0.987  -1.115  0.00  0.00    +0.000 A 
ATOM     21  C   UNL     1      -4.962  -0.481   0.959  0.00  0.00    +0.000 A 
ATOM     22  C   UNL     1      -4.400  -0.400  -1.390  0.00  0.00    +0.000 A 
ATOM     23  C   UNL     1      -5.298  -0.146  -0.353  0.00  0.00    +0.000 A 
BRANCH  23  26
ATOM     24  N   UNL     1      -7.504   0.732   0.375  0.00  0.00    +0.000 N 
ATOM     25  N   UNL     1      -6.904   0.778  -1.883  0.00  0.00    +0.000 NA
ATOM     26  C   UNL     1      -6.586   0.467  -0.639  0.00  0.00    +0.000 C 
ATOM     27  H   UNL     1      -7.341   0.525   1.353  0.00  0.00    +0.000 HD
ATOM     28  H   UNL     1      -8.398   1.159   0.155  0.00  0.00    +0.000 HD
ATOM     29  H   UNL     1      -7.842   1.194  -1.881  0.00  0.00    +0.000 HD
ENDBRANCH  23  26
ENDBRANCH  17  18
ENDBRANCH   2  17
TORSDOF 7
