REMARK  Name = 3715
REMARK  7 active torsions:
REMARK  status: ('A' for Active; 'I' for Inactive)
REMARK    1  A    between atoms: O_2  and  C_16
REMARK    2  A    between atoms: O_2  and  C_25
REMARK    3  A    between atoms: O_4  and  C_19
REMARK    4  A    between atoms: C_7  and  C_11
REMARK    5  A    between atoms: C_10  and  C_14
REMARK    6  A    between atoms: C_11  and  C_19
REMARK    7  A    between atoms: C_15  and  C_18
REMARK                            x       y       z     vdW  Elec       q    Type
REMARK                         _______ _______ _______ _____ _____    ______ ____
ROOT
ATOM      1  O   UNL     1      -1.027   3.055   0.223  0.00  0.00    +0.000 OA
ATOM      2  N   UNL     1       0.142   1.117   0.260  0.00  0.00    +0.000 N 
ATOM      3  C   UNL     1       2.340   0.709   0.506  0.00  0.00    +0.000 A 
ATOM      4  C   UNL     1       1.682  -0.535   0.360  0.00  0.00    +0.000 A 
ATOM      5  C   UNL     1       0.314  -0.270   0.211  0.00  0.00    +0.000 A 
ATOM      6  C   UNL     1       1.385   1.693   0.448  0.00  0.00    +0.000 A 
ATOM      7  C   UNL     1       2.138  -1.870   0.344  0.00  0.00    +0.000 A 
ATOM      8  C   UNL     1      -0.606  -1.322   0.036  0.00  0.00    +0.000 A 
ATOM      9  C   UNL     1       1.608   3.154   0.561  0.00  0.00    +0.000 C 
ATOM     10  C   UNL     1      -1.073   1.830   0.173  0.00  0.00    +0.000 C 
ATOM     11  C   UNL     1       1.223  -2.910   0.176  0.00  0.00    +0.000 A 
ATOM     12  C   UNL     1      -0.130  -2.638   0.023  0.00  0.00    +0.000 A 
ENDROOT
BRANCH  10  14
ATOM     13 CL   UNL     1      -6.460  -0.687  -0.475  0.00  0.00    +0.000 Cl
ATOM     14  C   UNL     1      -2.402   1.209   0.012  0.00  0.00    +0.000 A 
ATOM     15  C   UNL     1      -3.144   0.861   1.138  0.00  0.00    +0.000 A 
ATOM     16  C   UNL     1      -2.909   0.975  -1.264  0.00  0.00    +0.000 A 
ATOM     17  C   UNL     1      -4.401   0.275   0.987  0.00  0.00    +0.000 A 
ATOM     18  C   UNL     1      -4.165   0.388  -1.415  0.00  0.00    +0.000 A 
ATOM     19  C   UNL     1      -4.911   0.038  -0.289  0.00  0.00    +0.000 A 
ENDBRANCH  10  14
BRANCH  11  20
ATOM     20  O   UNL     1       1.662  -4.200   0.160  0.00  0.00    +0.000 OA
ATOM     21  C   UNL     1       0.678  -5.217  -0.018  0.00  0.00    +0.000 C 
ENDBRANCH  11  20
BRANCH   3  22
ATOM     22  C   UNL     1       3.792   0.913   0.692  0.00  0.00    +0.000 C 
BRANCH  22  24
ATOM     23  O   UNL     1       4.188   0.466  -1.653  0.00  0.00    +0.000 OA
ATOM     24  C   UNL     1       4.507   1.064  -0.632  0.00  0.00    +0.000 C 
BRANCH  24  25
ATOM     25  O   UNL     1       5.571   1.902  -0.564  0.00  0.00    +0.000 OA
ATOM     26  H   UNL     1       6.035   1.975  -1.425  0.00  0.00    +0.000 HD
ENDBRANCH  24  25
ENDBRANCH  22  24
ENDBRANCH   3  22
TORSDOF 5
