REMARK  Name = 36462
REMARK  11 active torsions:
REMARK  status: ('A' for Active; 'I' for Inactive)
REMARK    1  A    between atoms: O_1  and  C_16
REMARK    2  A    between atoms: O_1  and  C_22
REMARK    3  A    between atoms: O_6  and  C_24
REMARK    4  A    between atoms: O_8  and  C_26
REMARK    5  A    between atoms: O_11  and  C_36
REMARK    6  A    between atoms: O_11  and  C_41
REMARK    7  A    between atoms: O_12  and  C_37
REMARK    8  A    between atoms: O_12  and  C_42
REMARK    9  A    between atoms: O_13  and  C_39
REMARK   10  A    between atoms: C_17  and  C_23
REMARK   11  A    between atoms: C_35  and  C_40
REMARK                            x       y       z     vdW  Elec       q    Type
REMARK                         _______ _______ _______ _____ _____    ______ ____
ROOT
ATOM      1  O   UNL     1       0.376   2.943   1.496  0.00  0.00    +0.000 OA
ATOM      2  O   UNL     1       2.294   2.501   2.689  0.00  0.00    +0.000 OA
ATOM      3  O   UNL     1       0.382  -5.057  -1.146  0.00  0.00    +0.000 OA
ATOM      4  O   UNL     1       2.541  -5.044  -0.078  0.00  0.00    +0.000 OA
ATOM      5  C   UNL     1       0.169   0.915   0.396  0.00  0.00    +0.000 C 
ATOM      6  C   UNL     1       1.037   0.700   1.623  0.00  0.00    +0.000 C 
ATOM      7  C   UNL     1      -0.596  -0.356   0.049  0.00  0.00    +0.000 C 
ATOM      8  C   UNL     1       2.169  -0.300   1.343  0.00  0.00    +0.000 C 
ATOM      9  C   UNL     1       0.325  -1.565   0.030  0.00  0.00    +0.000 A 
ATOM     10  C   UNL     1       1.606  -1.555   0.663  0.00  0.00    +0.000 A 
ATOM     11  C   UNL     1      -0.603   2.149   0.799  0.00  0.00    +0.000 C 
ATOM     12  C   UNL     1       1.355   2.123   2.006  0.00  0.00    +0.000 C 
ATOM     13  C   UNL     1      -0.135  -2.737  -0.599  0.00  0.00    +0.000 A 
ATOM     14  C   UNL     1       2.397  -2.721   0.654  0.00  0.00    +0.000 A 
ATOM     15  C   UNL     1       0.676  -3.852  -0.587  0.00  0.00    +0.000 A 
ATOM     16  C   UNL     1       1.906  -3.845   0.023  0.00  0.00    +0.000 A 
ATOM     17  C   UNL     1       1.570  -5.808  -0.822  0.00  0.00    +0.000 C 
ENDROOT
BRANCH   8  18
ATOM     18  C   UNL     1       3.254   0.307   0.504  0.00  0.00    +0.000 A 
ATOM     19  C   UNL     1       3.200   0.194  -0.881  0.00  0.00    +0.000 A 
ATOM     20  C   UNL     1       4.305   0.978   1.119  0.00  0.00    +0.000 A 
ATOM     21  C   UNL     1       5.315   1.543   0.340  0.00  0.00    +0.000 A 
ATOM     22  C   UNL     1       4.209   0.759  -1.660  0.00  0.00    +0.000 A 
ATOM     23  C   UNL     1       5.267   1.433  -1.050  0.00  0.00    +0.000 A 
BRANCH  21  24
ATOM     24  O   UNL     1       6.343   2.198   0.948  0.00  0.00    +0.000 OA
ATOM     25  C   UNL     1       6.176   3.596   1.174  0.00  0.00    +0.000 C 
ENDBRANCH  21  24
BRANCH  22  26
ATOM     26  O   UNL     1       4.150   0.645  -3.017  0.00  0.00    +0.000 OA
ATOM     27  C   UNL     1       3.465   1.677  -3.724  0.00  0.00    +0.000 C 
ENDBRANCH  22  26
BRANCH  23  28
ATOM     28  O   UNL     1       6.255   1.984  -1.811  0.00  0.00    +0.000 OA
ATOM     29  H   UNL     1       6.923   2.372  -1.220  0.00  0.00    +0.000 HD
ENDBRANCH  23  28
ENDBRANCH   8  18
BRANCH   7  30
ATOM     30  O   UNL     1      -1.635  -0.569   1.004  0.00  0.00    +0.000 OA
BRANCH  30  34
ATOM     31  O   UNL     1      -3.127   0.712  -0.259  0.00  0.00    +0.000 OA
ATOM     32  O   UNL     1      -6.777   0.812  -0.456  0.00  0.00    +0.000 OA
ATOM     33  O   UNL     1      -5.868   2.155  -2.211  0.00  0.00    +0.000 OA
ATOM     34  C   UNL     1      -2.921  -0.547   0.386  0.00  0.00    +0.000 C 
ATOM     35  C   UNL     1      -3.969  -0.786   1.478  0.00  0.00    +0.000 C 
ATOM     36  C   UNL     1      -5.505   0.715   0.187  0.00  0.00    +0.000 C 
ATOM     37  C   UNL     1      -5.396  -0.597   0.955  0.00  0.00    +0.000 C 
ATOM     38  C   UNL     1      -4.408   0.784  -0.873  0.00  0.00    +0.000 C 
ATOM     39  C   UNL     1      -4.556   2.083  -1.654  0.00  0.00    +0.000 C 
ATOM     40  C   UNL     1      -6.870   2.038  -1.194  0.00  0.00    +0.000 C 
ATOM     41  C   UNL     1      -8.228   2.066  -1.874  0.00  0.00    +0.000 C 
BRANCH  35  42
ATOM     42  O   UNL     1      -3.845  -2.121   1.969  0.00  0.00    +0.000 OA
ATOM     43  H   UNL     1      -2.928  -2.235   2.272  0.00  0.00    +0.000 HD
ENDBRANCH  35  42
BRANCH  37  44
ATOM     44  O   UNL     1      -6.301  -0.554   2.058  0.00  0.00    +0.000 OA
ATOM     45  H   UNL     1      -7.191  -0.402   1.698  0.00  0.00    +0.000 HD
ENDBRANCH  37  44
ENDBRANCH  30  34
ENDBRANCH   7  30
TORSDOF 8
