REMARK  Name = 638678
REMARK  6 active torsions:
REMARK  status: ('A' for Active; 'I' for Inactive)
REMARK    1  A    between atoms: N_6  and  C_15
REMARK    2  A    between atoms: C_11  and  C_18
REMARK    3  A    between atoms: C_15  and  C_16
REMARK    4  A    between atoms: C_15  and  C_19
REMARK    5  A    between atoms: C_17  and  C_21
REMARK    6  A    between atoms: C_19  and  C_24
REMARK                            x       y       z     vdW  Elec       q    Type
REMARK                         _______ _______ _______ _____ _____    ______ ____
ROOT
ATOM      1  C   UNL     1       0.328  -0.745  -0.217  0.00  0.00    +0.000 C 
ENDROOT
BRANCH   1   8
ATOM      2  O   UNL     1       0.324   1.283  -1.464  0.00  0.00    +0.000 OA
ATOM      3  N   UNL     1       1.748   1.166   0.357  0.00  0.00    +0.000 N 
ATOM      4  C   UNL     1       2.182   2.556   0.318  0.00  0.00    +0.000 C 
ATOM      5  C   UNL     1       2.849   2.791   1.668  0.00  0.00    +0.000 C 
ATOM      6  C   UNL     1       2.324   0.465   1.501  0.00  0.00    +0.000 C 
ATOM      7  C   UNL     1       3.385   1.411   2.044  0.00  0.00    +0.000 C 
ATOM      8  C   UNL     1       0.788   0.661  -0.507  0.00  0.00    +0.000 C 
BRANCH   4  11
ATOM      9  O   UNL     1       3.475   1.724  -1.512  0.00  0.00    +0.000 OA
ATOM     10  N   UNL     1       3.658   3.954  -0.973  0.00  0.00    +0.000 N 
ATOM     11  C   UNL     1       3.156   2.684  -0.814  0.00  0.00    +0.000 C 
ATOM     12  H   UNL     1       4.332   4.160  -1.702  0.00  0.00    +0.000 HD
ATOM     13  H   UNL     1       3.368   4.731  -0.388  0.00  0.00    +0.000 HD
ENDBRANCH   4  11
ENDBRANCH   1   8
BRANCH   1  15
ATOM     14  O   UNL     1      -1.908   0.114   1.424  0.00  0.00    +0.000 OA
ATOM     15  N   UNL     1      -1.060  -0.724  -0.578  0.00  0.00    +0.000 N 
ATOM     16  C   UNL     1      -2.069  -0.294   0.277  0.00  0.00    +0.000 C 
ATOM     17  H   UNL     1      -1.310  -1.008  -1.521  0.00  0.00    +0.000 HD
BRANCH  16  20
ATOM     18  O   UNL     1      -5.507   2.108   1.093  0.00  0.00    +0.000 OA
ATOM     19  N   UNL     1      -4.358   0.123   0.623  0.00  0.00    +0.000 N 
ATOM     20  C   UNL     1      -3.422  -0.351  -0.357  0.00  0.00    +0.000 C 
ATOM     21  C   UNL     1      -3.575   0.628  -1.506  0.00  0.00    +0.000 C 
ATOM     22  C   UNL     1      -4.048   1.920  -0.840  0.00  0.00    +0.000 C 
ATOM     23  C   UNL     1      -4.756   1.437   0.402  0.00  0.00    +0.000 C 
ATOM     24  H   UNL     1      -4.669  -0.425   1.419  0.00  0.00    +0.000 HD
ENDBRANCH  16  20
ENDBRANCH   1  15
BRANCH   1  25
ATOM     25  C   UNL     1       1.147  -1.745  -1.023  0.00  0.00    +0.000 C 
BRANCH  25  28
ATOM     26  N   UNL     1       2.156  -3.840  -0.035  0.00  0.00    +0.000 N 
ATOM     27  N   UNL     1       0.413  -5.163   0.341  0.00  0.00    +0.000 NA
ATOM     28  C   UNL     1       1.058  -3.138  -0.446  0.00  0.00    +0.000 A 
ATOM     29  C   UNL     1      -0.006  -3.975  -0.204  0.00  0.00    +0.000 A 
ATOM     30  C   UNL     1       1.720  -5.049   0.429  0.00  0.00    +0.000 A 
ATOM     31  H   UNL     1       3.117  -3.525  -0.067  0.00  0.00    +0.000 HD
ENDBRANCH  25  28
ENDBRANCH   1  25
TORSDOF 6
