REMARK  Name = 
REMARK  29 active torsions:
REMARK  status: ('A' for Active; 'I' for Inactive)
REMARK    1  A    between atoms: C_1  and  C_2
REMARK    2  A    between atoms: C_2  and  C_3
REMARK    3  A    between atoms: C_3  and  C_4
REMARK    4  A    between atoms: C_4  and  C_5
REMARK    5  A    between atoms: C_5  and  C_6
REMARK    6  A    between atoms: C_6  and  C_7
REMARK    7  A    between atoms: C_7  and  C_8
REMARK    8  A    between atoms: C_8  and  C_9
REMARK    9  A    between atoms: C_9  and  C_10
REMARK   10  A    between atoms: C_10  and  C_11
REMARK   11  A    between atoms: C_11  and  C_12
REMARK   12  A    between atoms: C_12  and  C_13
REMARK   13  A    between atoms: C_13  and  C_14
REMARK   14  A    between atoms: C_14  and  C_15
REMARK   15  A    between atoms: C_15  and  C_16
REMARK   16  A    between atoms: N_18  and  C_19
REMARK   17  A    between atoms: C_19  and  C_20
REMARK   18  A    between atoms: N_22  and  CA_23
REMARK   19  A    between atoms: CA_23  and  CB_24
REMARK   20  A    between atoms: CA_23  and  C_30
REMARK   21  A    between atoms: CB_24  and  CG_25
REMARK   22  A    between atoms: N_32  and  CA_33
REMARK   23  A    between atoms: CA_33  and  CB_34
REMARK   24  A    between atoms: CA_33  and  C_39
REMARK   25  A    between atoms: CB_34  and  CG_35
REMARK   26  A    between atoms: CG_35  and  CD_36
REMARK   27  A    between atoms: CD_36  and  CE_37
REMARK   28  A    between atoms: CE_37  and  NZ_38
REMARK   29  A    between atoms: C_39  and  OXT_41
REMARK                            x       y       z     vdW  Elec       q    Type
REMARK                         _______ _______ _______ _____ _____    ______ ____
ROOT
ATOM      1  C   UNK A   0      -0.959  -1.561  -0.549  0.00  0.00    +0.000 C 
ATOM      2  O   UNK A   0      -1.165  -2.810  -0.466  0.00  0.00    +0.000 OA
ATOM      3  N   HIS A   1      -2.021  -0.838  -1.187  0.00  0.00    +0.000 N 
ATOM      4  H   HIS A   1      -1.982  -0.383  -2.059  0.00  0.00    +0.000 HD
ENDROOT
BRANCH   1   5
ATOM      5  C   UNK A   0       0.435  -1.028  -0.469  0.00  0.00    +0.000 C 
BRANCH   5   8
ATOM      6  C   UNK A   0       1.373   0.463   1.311  0.00  0.00    +0.000 C 
ATOM      7  O   UNK A   0       0.748   1.466   0.866  0.00  0.00    +0.000 OA
ATOM      8  N   UNK A   0       0.834  -0.804   0.920  0.00  0.00    +0.000 N 
ATOM      9  H   UNK A   0       0.733  -1.524   1.584  0.00  0.00    +0.000 HD
BRANCH   6  10
ATOM     10  C   UNK A   0       2.660   0.587   2.061  0.00  0.00    +0.000 C 
BRANCH  10  11
ATOM     11  C   UNK A   0       3.666   1.283   1.150  0.00  0.00    +0.000 C 
BRANCH  11  12
ATOM     12  C   UNK A   0       3.924   0.453  -0.078  0.00  0.00    +0.000 C 
BRANCH  12  13
ATOM     13  C   UNK A   0       4.812  -0.733   0.220  0.00  0.00    +0.000 C 
BRANCH  13  14
ATOM     14  C   UNK A   0       4.878  -1.593  -1.019  0.00  0.00    +0.000 C 
BRANCH  14  15
ATOM     15  C   UNK A   0       6.036  -1.191  -1.901  0.00  0.00    +0.000 C 
BRANCH  15  16
ATOM     16  C   UNK A   0       5.770   0.076  -2.664  0.00  0.00    +0.000 C 
BRANCH  16  17
ATOM     17  C   UNK A   0       6.716   1.160  -2.196  0.00  0.00    +0.000 C 
BRANCH  17  18
ATOM     18  C   UNK A   0       8.149   0.690  -2.181  0.00  0.00    +0.000 C 
BRANCH  18  19
ATOM     19  C   UNK A   0       8.529   0.122  -0.837  0.00  0.00    +0.000 C 
BRANCH  19  20
ATOM     20  C   UNK A   0       9.301  -1.163  -1.066  0.00  0.00    +0.000 C 
BRANCH  20  21
ATOM     21  C   UNK A   0      10.669  -1.080  -0.402  0.00  0.00    +0.000 C 
BRANCH  21  22
ATOM     22  C   UNK A   0      11.027   0.348  -0.068  0.00  0.00    +0.000 C 
BRANCH  22  24
ATOM     23  C   UNK A   0      11.211   0.716   2.303  0.00  0.00    +0.000 C 
ATOM     24  C   UNK A   0      10.371   0.760   1.235  0.00  0.00    +0.000 C 
ENDBRANCH  22  24
ENDBRANCH  21  22
ENDBRANCH  20  21
ENDBRANCH  19  20
ENDBRANCH  18  19
ENDBRANCH  17  18
ENDBRANCH  16  17
ENDBRANCH  15  16
ENDBRANCH  14  15
ENDBRANCH  13  14
ENDBRANCH  12  13
ENDBRANCH  11  12
ENDBRANCH  10  11
ENDBRANCH   6  10
ENDBRANCH   5   8
ENDBRANCH   1   5
BRANCH   3  25
ATOM     25  CA  HIS A   1      -3.286  -0.917  -0.199  0.00  0.00    +0.000 C 
BRANCH  25  26
ATOM     26  C   HIS A   1      -4.375  -1.040  -1.425  0.00  0.00    +0.000 C 
ATOM     27  O   HIS A   1      -4.140  -0.341  -2.422  0.00  0.00    +0.000 OA
ATOM     28  N   LYS A   2      -5.655  -0.736  -0.838  0.00  0.00    +0.000 N 
ATOM     29  H   LYS A   2      -5.812  -0.280   0.021  0.00  0.00    +0.000 HD
BRANCH  28  30
ATOM     30  CA  LYS A   2      -6.774  -1.282  -1.848  0.00  0.00    +0.000 C 
BRANCH  30  31
ATOM     31  C   LYS A   2      -7.453   0.210  -1.989  0.00  0.00    +0.000 C 
ATOM     32  O   LYS A   2      -6.687   0.999  -2.580  0.00  0.00    +0.000 OA
BRANCH  31  33
ATOM     33  OXT LYS A   2      -8.824   0.127  -2.243  0.00  0.00    +0.000 OA
ATOM     34  HXT LYS A   2      -9.352  -0.484  -1.768  0.00  0.00    +0.000 HD
ENDBRANCH  31  33
ENDBRANCH  30  31
BRANCH  30  35
ATOM     35  CB  LYS A   2      -7.786  -1.698  -0.578  0.00  0.00    +0.000 C 
BRANCH  35  36
ATOM     36  CG  LYS A   2      -7.821  -0.514   0.319  0.00  0.00    +0.000 C 
BRANCH  36  37
ATOM     37  CD  LYS A   2      -6.922  -0.586   1.513  0.00  0.00    +0.000 C 
BRANCH  37  38
ATOM     38  CE  LYS A   2      -7.170   0.623   2.388  0.00  0.00    +0.000 C 
BRANCH  38  39
ATOM     39  NZ  LYS A   2      -6.098   0.696   3.377  0.00  0.00    +0.000 NA
ATOM     40  HZ1 LYS A   2      -6.092  -0.157   3.936  0.00  0.00    +0.000 HD
ATOM     41  HZ2 LYS A   2      -6.250   1.500   3.986  0.00  0.00    +0.000 HD
ENDBRANCH  38  39
ENDBRANCH  37  38
ENDBRANCH  36  37
ENDBRANCH  35  36
ENDBRANCH  30  35
ENDBRANCH  28  30
ENDBRANCH  25  26
BRANCH  25  42
ATOM     42  CB  HIS A   1      -3.424   0.754  -0.177  0.00  0.00    +0.000 C 
BRANCH  42  43
ATOM     43  CG  HIS A   1      -3.735   1.031   1.248  0.00  0.00    +0.000 A 
ATOM     44  CD2 HIS A   1      -3.378   0.289   2.361  0.00  0.00    +0.000 A 
ATOM     45  NE2 HIS A   1      -4.096   0.779   3.402  0.00  0.00    +0.000 N 
ATOM     46  CE1 HIS A   1      -4.909   1.770   2.968  0.00  0.00    +0.000 A 
ATOM     47  ND1 HIS A   1      -4.433   2.076   1.739  0.00  0.00    +0.000 NA
ATOM     48  HE2 HIS A   1      -4.035   0.463   4.332  0.00  0.00    +0.000 HD
ENDBRANCH  42  43
ENDBRANCH  25  42
ENDBRANCH   3  25
TORSDOF 28
