REMARK  Name = 9843750
REMARK  10 active torsions:
REMARK  status: ('A' for Active; 'I' for Inactive)
REMARK    1  A    between atoms: O_2  and  C_19
REMARK    2  A    between atoms: N_5  and  C_20
REMARK    3  A    between atoms: N_6  and  C_8
REMARK    4  A    between atoms: N_7  and  C_14
REMARK    5  A    between atoms: C_14  and  C_17
REMARK    6  A    between atoms: C_14  and  C_24
REMARK    7  A    between atoms: C_18  and  C_19
REMARK    8  A    between atoms: C_18  and  C_25
REMARK    9  A    between atoms: C_18  and  C_26
REMARK   10  A    between atoms: C_19  and  C_23
REMARK                            x       y       z     vdW  Elec       q    Type
REMARK                         _______ _______ _______ _____ _____    ______ ____
ROOT
ATOM      1  O   UNL     1       0.743  -0.803   1.470  0.00  0.00    +0.000 OA
ATOM      2  N   UNL     1      -0.661  -1.270  -0.317  0.00  0.00    +0.000 N 
ATOM      3  C   UNL     1       0.544  -1.308   0.367  0.00  0.00    +0.000 C 
ATOM      4  H   UNL     1      -0.720  -1.694  -1.239  0.00  0.00    +0.000 HD
ENDROOT
BRANCH   2   7
ATOM      5  O   UNL     1      -2.917  -2.111  -1.345  0.00  0.00    +0.000 OA
ATOM      6  N   UNL     1      -4.208  -1.261   0.381  0.00  0.00    +0.000 N 
ATOM      7  C   UNL     1      -1.838  -0.615   0.213  0.00  0.00    +0.000 C 
ATOM      8  C   UNL     1      -1.941   0.869  -0.099  0.00  0.00    +0.000 A 
ATOM      9  C   UNL     1      -4.307   1.125   0.986  0.00  0.00    +0.000 C 
ATOM     10  C   UNL     1      -3.065   1.641   0.282  0.00  0.00    +0.000 A 
ATOM     11  C   UNL     1      -4.331  -0.315   1.485  0.00  0.00    +0.000 C 
ATOM     12  C   UNL     1      -3.019  -1.415  -0.333  0.00  0.00    +0.000 C 
ATOM     13  C   UNL     1      -0.872   1.530  -0.745  0.00  0.00    +0.000 A 
ATOM     14  C   UNL     1      -3.085   3.020  -0.025  0.00  0.00    +0.000 A 
ATOM     15  C   UNL     1      -5.423  -1.938  -0.050  0.00  0.00    +0.000 C 
ATOM     16  C   UNL     1      -0.913   2.895  -1.032  0.00  0.00    +0.000 A 
ATOM     17  C   UNL     1      -2.023   3.642  -0.674  0.00  0.00    +0.000 A 
ENDBRANCH   2   7
BRANCH   3  18
ATOM     18  C   UNL     1       1.603  -2.099  -0.389  0.00  0.00    +0.000 C 
ATOM     19  C   UNL     1       1.567  -3.568   0.001  0.00  0.00    +0.000 C 
BRANCH  18  21
ATOM     20  O   UNL     1       2.888   0.086  -1.787  0.00  0.00    +0.000 OA
ATOM     21  N   UNL     1       2.886  -1.512  -0.101  0.00  0.00    +0.000 N 
ATOM     22  C   UNL     1       3.429  -0.460  -0.828  0.00  0.00    +0.000 C 
ATOM     23  H   UNL     1       3.404  -1.883   0.690  0.00  0.00    +0.000 HD
BRANCH  22  24
ATOM     24  C   UNL     1       4.809  -0.047  -0.326  0.00  0.00    +0.000 C 
BRANCH  24  25
ATOM     25  C   UNL     1       4.772   0.460   1.131  0.00  0.00    +0.000 C 
ATOM     26  C   UNL     1       3.854   1.676   1.306  0.00  0.00    +0.000 C 
ATOM     27  C   UNL     1       6.183   0.819   1.610  0.00  0.00    +0.000 C 
ENDBRANCH  24  25
BRANCH  24  28
ATOM     28  O   UNL     1       5.328   0.960  -1.181  0.00  0.00    +0.000 OA
ATOM     29  H   UNL     1       5.449   0.563  -2.060  0.00  0.00    +0.000 HD
ENDBRANCH  24  28
ENDBRANCH  22  24
ENDBRANCH  18  21
ENDBRANCH   3  18
TORSDOF 6
