REMARK  Name = 
REMARK  20 active torsions:
REMARK  status: ('A' for Active; 'I' for Inactive)
REMARK    1  A    between atoms: CE_1  and  SD_2
REMARK    2  A    between atoms: SD_2  and  CG_3
REMARK    3  A    between atoms: CG_3  and  CB_4
REMARK    4  A    between atoms: CB_4  and  CA_5
REMARK    5  A    between atoms: CA_5  and  N_6
REMARK    6  A    between atoms: CA_5  and  C_38
REMARK    7  A    between atoms: C_7  and  CA_9
REMARK    8  A    between atoms: CA_9  and  CB_10
REMARK    9  A    between atoms: CA_9  and  N_17
REMARK   10  A    between atoms: CB_10  and  CG_11
REMARK   11  A    between atoms: C_18  and  CA_20
REMARK   12  A    between atoms: CA_20  and  N_21
REMARK   13  A    between atoms: C_22  and  CA_24
REMARK   14  A    between atoms: CA_24  and  N_25
REMARK   15  A    between atoms: C_26  and  CA_28
REMARK   16  A    between atoms: CA_28  and  N_29
REMARK   17  A    between atoms: CA_28  and  CB_30
REMARK   18  A    between atoms: CB_30  and  CG_31
REMARK   19  A    between atoms: CZ_34  and  OH_35
REMARK   20  A    between atoms: C_38  and  OXT_40
REMARK                            x       y       z     vdW  Elec       q    Type
REMARK                         _______ _______ _______ _____ _____    ______ ____
ROOT
ATOM      1  N   PHE A   4       2.236   0.522  -0.792  0.00  0.00    +0.000 N 
ATOM      2  C   GLY A   3       0.825   0.329  -0.990  0.00  0.00    +0.000 C 
ATOM      3  O   GLY A   3       0.613  -0.802  -1.528  0.00  0.00    +0.000 OA
ATOM      4  H   PHE A   4       2.834   1.105  -1.314  0.00  0.00    +0.000 HD
ENDROOT
BRANCH   1   5
ATOM      5  CA  PHE A   4       2.634  -0.405   0.454  0.00  0.00    +0.000 C 
BRANCH   5   7
ATOM      6  N   MET A   5       4.810  -0.108   1.778  0.00  0.00    +0.000 N 
ATOM      7  C   PHE A   4       3.960   0.497   0.799  0.00  0.00    +0.000 C 
ATOM      8  O   PHE A   4       3.669   1.725   0.951  0.00  0.00    +0.000 OA
ATOM      9  H   MET A   5       5.264  -0.969   1.631  0.00  0.00    +0.000 HD
BRANCH   6  10
ATOM     10  CA  MET A   5       4.961   0.732   3.130  0.00  0.00    +0.000 C 
BRANCH  10  11
ATOM     11  C   MET A   5       6.509   1.144   2.792  0.00  0.00    +0.000 C 
ATOM     12  O   MET A   5       7.239   0.196   2.441  0.00  0.00    +0.000 OA
BRANCH  11  13
ATOM     13  OXT MET A   5       6.528   2.247   1.925  0.00  0.00    +0.000 OA
ATOM     14  HXT MET A   5       6.007   3.002   2.116  0.00  0.00    +0.000 HD
ENDBRANCH  11  13
ENDBRANCH  10  11
BRANCH  10  15
ATOM     15  CB  MET A   5       5.419  -0.613   4.009  0.00  0.00    +0.000 C 
BRANCH  15  16
ATOM     16  CG  MET A   5       4.349  -1.644   3.667  0.00  0.00    +0.000 C 
BRANCH  16  18
ATOM     17  CE  MET A   5       5.554  -2.670   2.121  0.00  0.00    +0.000 C 
ATOM     18  SD  MET A   5       5.142  -2.724   2.427  0.00  0.00    +0.000 S 
ENDBRANCH  16  18
ENDBRANCH  15  16
ENDBRANCH  10  15
ENDBRANCH   6  10
ENDBRANCH   5   7
BRANCH   5  19
ATOM     19  CB  PHE A   4       3.506  -1.489  -0.458  0.00  0.00    +0.000 C 
BRANCH  19  20
ATOM     20  CG  PHE A   4       4.094  -0.778  -1.583  0.00  0.00    +0.000 A 
ATOM     21  CD1 PHE A   4       5.319  -0.136  -1.425  0.00  0.00    +0.000 A 
ATOM     22  CE1 PHE A   4       6.219   0.022  -2.446  0.00  0.00    +0.000 A 
ATOM     23  CZ  PHE A   4       5.885  -0.375  -3.713  0.00  0.00    +0.000 A 
ATOM     24  CE2 PHE A   4       4.902  -1.337  -3.814  0.00  0.00    +0.000 A 
ATOM     25  CD2 PHE A   4       4.017  -1.470  -2.790  0.00  0.00    +0.000 A 
ENDBRANCH  19  20
ENDBRANCH   5  19
ENDBRANCH   1   5
BRANCH   2  26
ATOM     26  CA  GLY A   3      -0.192   1.396  -0.905  0.00  0.00    +0.000 C 
BRANCH  26  27
ATOM     27  N   GLY A   3      -0.981   1.348   0.304  0.00  0.00    +0.000 N 
ATOM     28  C   GLY A   2      -1.855   0.301   0.659  0.00  0.00    +0.000 C 
ATOM     29  O   GLY A   2      -1.724  -0.795   0.062  0.00  0.00    +0.000 OA
ATOM     30  H   GLY A   3      -0.902   2.105   0.928  0.00  0.00    +0.000 HD
BRANCH  28  31
ATOM     31  CA  GLY A   2      -3.170   0.502   1.336  0.00  0.00    +0.000 C 
BRANCH  31  32
ATOM     32  N   GLY A   2      -4.131   1.049   0.418  0.00  0.00    +0.000 N 
ATOM     33  C   TYR A   1      -4.756   0.202  -0.553  0.00  0.00    +0.000 C 
ATOM     34  O   TYR A   1      -4.432  -0.976  -0.736  0.00  0.00    +0.000 OA
ATOM     35  H   GLY A   2      -4.360   2.006   0.456  0.00  0.00    +0.000 HD
BRANCH  33  36
ATOM     36  CA  TYR A   1      -4.935   1.104  -1.908  0.00  0.00    +0.000 C 
BRANCH  36  37
ATOM     37  N   TYR A   1      -5.665  -0.064  -2.722  0.00  0.00    +0.000 NA
ATOM     38  H1  TYR A   1      -6.382  -0.490  -2.134  0.00  0.00    +0.000 HD
ATOM     39  H2  TYR A   1      -4.981  -0.771  -2.990  0.00  0.00    +0.000 HD
ENDBRANCH  36  37
BRANCH  36  40
ATOM     40  CB  TYR A   1      -6.394   1.715  -1.377  0.00  0.00    +0.000 C 
BRANCH  40  41
ATOM     41  CG  TYR A   1      -7.144   0.562  -0.863  0.00  0.00    +0.000 A 
ATOM     42  CD1 TYR A   1      -7.269   0.290   0.494  0.00  0.00    +0.000 A 
ATOM     43  CE1 TYR A   1      -8.424  -0.293   0.997  0.00  0.00    +0.000 A 
ATOM     44  CZ  TYR A   1      -9.389  -0.772   0.152  0.00  0.00    +0.000 A 
ATOM     45  CE2 TYR A   1      -9.129  -0.797  -1.196  0.00  0.00    +0.000 A 
ATOM     46  CD2 TYR A   1      -8.102  -0.015  -1.673  0.00  0.00    +0.000 A 
BRANCH  44  47
ATOM     47  OH  TYR A   1     -10.698  -1.045   0.558  0.00  0.00    +0.000 OA
ATOM     48  HH  TYR A   1     -10.917  -1.038   1.469  0.00  0.00    +0.000 HD
ENDBRANCH  44  47
ENDBRANCH  40  41
ENDBRANCH  36  40
ENDBRANCH  33  36
ENDBRANCH  31  32
ENDBRANCH  28  31
ENDBRANCH  26  27
ENDBRANCH   2  26
TORSDOF 19
