REMARK  Name = 51712
REMARK  11 active torsions:
REMARK  status: ('A' for Active; 'I' for Inactive)
REMARK    1  A    between atoms: N_3  and  C_6
REMARK    2  A    between atoms: N_3  and  C_7
REMARK    3  A    between atoms: N_3  and  C_8
REMARK    4  A    between atoms: N_4  and  C_13
REMARK    5  A    between atoms: N_5  and  C_11
REMARK    6  A    between atoms: C_6  and  C_15
REMARK    7  A    between atoms: C_6  and  C_16
REMARK    8  A    between atoms: C_7  and  C_17
REMARK    9  A    between atoms: C_7  and  C_18
REMARK   10  A    between atoms: C_8  and  C_11
REMARK   11  A    between atoms: C_13  and  C_19
REMARK                            x       y       z     vdW  Elec       q    Type
REMARK                         _______ _______ _______ _____ _____    ______ ____
ROOT
ATOM      1  O   UNL     1      -1.340   0.209   1.098  0.00  0.00    +0.000 OA
ATOM      2  N   UNL     1      -0.056   1.169  -0.585  0.00  0.00    +0.000 N 
ATOM      3  C   UNL     1      -1.230   0.677  -0.033  0.00  0.00    +0.000 C 
ATOM      4  H   UNL     1      -0.072   1.531  -1.535  0.00  0.00    +0.000 HD
ENDROOT
BRANCH   2   5
ATOM      5  C   UNL     1       1.205   1.188   0.120  0.00  0.00    +0.000 C 
BRANCH   5   6
ATOM      6  C   UNL     1       1.989  -0.095  -0.115  0.00  0.00    +0.000 C 
BRANCH   6   7
ATOM      7  N   UNL     1       3.268  -0.042   0.581  0.00  0.00    +0.000 NA
BRANCH   7   8
ATOM      8  C   UNL     1       4.002  -1.297   0.408  0.00  0.00    +0.000 C 
ATOM      9  C   UNL     1       4.268  -1.554  -1.072  0.00  0.00    +0.000 C 
ATOM     10  C   UNL     1       3.206  -2.441   1.029  0.00  0.00    +0.000 C 
ENDBRANCH   7   8
BRANCH   7  11
ATOM     11  C   UNL     1       4.070   1.085   0.102  0.00  0.00    +0.000 C 
ATOM     12  C   UNL     1       4.340   0.945  -1.393  0.00  0.00    +0.000 C 
ATOM     13  C   UNL     1       5.375   1.151   0.890  0.00  0.00    +0.000 C 
ENDBRANCH   7  11
ENDBRANCH   6   7
ENDBRANCH   5   6
ENDBRANCH   2   5
BRANCH   3  14
ATOM     14  C   UNL     1      -2.399   0.836  -0.981  0.00  0.00    +0.000 C 
BRANCH  14  16
ATOM     15  O   UNL     1      -3.650  -1.887  -1.045  0.00  0.00    +0.000 OA
ATOM     16  N   UNL     1      -3.608   0.360  -0.344  0.00  0.00    +0.000 N 
ATOM     17  C   UNL     1      -4.361   1.191   0.564  0.00  0.00    +0.000 C 
ATOM     18  C   UNL     1      -5.679   0.454   0.693  0.00  0.00    +0.000 C 
ATOM     19  C   UNL     1      -5.299  -1.010   0.500  0.00  0.00    +0.000 C 
ATOM     20  C   UNL     1      -4.099  -0.941  -0.416  0.00  0.00    +0.000 C 
ENDBRANCH  14  16
ENDBRANCH   3  14
TORSDOF 7
