REMARK  Name = 72022
REMARK  11 active torsions:
REMARK  status: ('A' for Active; 'I' for Inactive)
REMARK    1  A    between atoms: O_2  and  C_17
REMARK    2  A    between atoms: O_4  and  C_22
REMARK    3  A    between atoms: N_7  and  CA_18
REMARK    4  A    between atoms: N_7  and  CA_20
REMARK    5  A    between atoms: CA_11  and  C_17
REMARK    6  A    between atoms: C_16  and  CA_18
REMARK    7  A    between atoms: CA_18  and  CB_19
REMARK    8  A    between atoms: CA_20  and  C_21
REMARK    9  A    between atoms: CA_20  and  C_22
REMARK   10  A    between atoms: C_21  and  C_23
REMARK   11  A    between atoms: C_23  and  C_24
REMARK                            x       y       z     vdW  Elec       q    Type
REMARK                         _______ _______ _______ _____ _____    ______ ____
ROOT
ATOM      1  O   UNL     1       0.164  -2.353  -0.120  0.00  0.00    +0.000 OA
ATOM      2  N   UNL     1       1.348  -0.427   0.373  0.00  0.00    +0.000 N 
ATOM      3  C   UNL     1       3.601  -0.179   0.987  0.00  0.00    +0.000 C 
ATOM      4  C   UNL     1       2.667  -1.002   0.093  0.00  0.00    +0.000 C 
ATOM      5  C   UNL     1       2.979   1.219   0.932  0.00  0.00    +0.000 C 
ATOM      6  CA  UNL     1       1.473   0.942   0.886  0.00  0.00    +0.000 C 
ATOM      7  C   UNL     1       5.075  -0.242   0.601  0.00  0.00    +0.000 C 
ATOM      8  C   UNL     1       2.991  -0.916  -1.403  0.00  0.00    +0.000 C 
ATOM      9  C   UNL     1       5.324  -0.134  -0.900  0.00  0.00    +0.000 C 
ATOM     10  C   UNL     1       4.473  -1.131  -1.678  0.00  0.00    +0.000 C 
ATOM     11  C   UNL     1       0.199  -1.204   0.328  0.00  0.00    +0.000 C 
ENDROOT
BRANCH   6  13
ATOM     12  OXT UNL     1       0.732   1.711  -1.280  0.00  0.00    +0.000 OA
ATOM     13  C   UNL     1       0.819   1.885  -0.074  0.00  0.00    +0.000 C 
BRANCH  13  14
ATOM     14  O   UNL     1       0.334   2.971   0.577  0.00  0.00    +0.000 OA
ATOM     15  H   UNL     1      -0.072   3.615  -0.041  0.00  0.00    +0.000 HD
ENDBRANCH  13  14
ENDBRANCH   6  13
BRANCH  11  16
ATOM     16  CA  UNL     1      -1.062  -0.564   0.851  0.00  0.00    +0.000 C 
ATOM     17  CB  UNL     1      -1.228  -0.877   2.325  0.00  0.00    +0.000 C 
BRANCH  16  18
ATOM     18  N   UNL     1      -2.163  -1.107   0.074  0.00  0.00    +0.000 NA
ATOM     19  H   UNL     1      -2.199  -2.121   0.185  0.00  0.00    +0.000 HD
BRANCH  18  20
ATOM     20  CA  UNL     1      -3.436  -0.537   0.500  0.00  0.00    +0.000 C 
BRANCH  20  22
ATOM     21  OXT UNL     1      -4.381  -1.900  -1.299  0.00  0.00    +0.000 OA
ATOM     22  C   UNL     1      -4.533  -1.133  -0.359  0.00  0.00    +0.000 C 
BRANCH  22  23
ATOM     23  O   UNL     1      -5.750  -0.681   0.043  0.00  0.00    +0.000 OA
ATOM     24  H   UNL     1      -6.476  -1.047  -0.507  0.00  0.00    +0.000 HD
ENDBRANCH  22  23
ENDBRANCH  20  22
BRANCH  20  25
ATOM     25  C   UNL     1      -3.416   0.997   0.435  0.00  0.00    +0.000 C 
BRANCH  25  26
ATOM     26  C   UNL     1      -3.134   1.571  -0.960  0.00  0.00    +0.000 C 
ATOM     27  C   UNL     1      -3.077   3.091  -0.930  0.00  0.00    +0.000 C 
ENDBRANCH  25  26
ENDBRANCH  20  25
ENDBRANCH  18  20
ENDBRANCH  16  18
ENDBRANCH  11  16
TORSDOF 9
