REMARK  Name = 
REMARK  8 active torsions:
REMARK  status: ('A' for Active; 'I' for Inactive)
REMARK    1  A    between atoms: C_1  and  C_2
REMARK    2  A    between atoms: C_2  and  C_3
REMARK    3  A    between atoms: C_5  and  C_6
REMARK    4  A    between atoms: C_9  and  C_10
REMARK    5  A    between atoms: C_10  and  O_12
REMARK    6  A    between atoms: C_13  and  C_14
REMARK    7  A    between atoms: C_23  and  O_24
REMARK    8  A    between atoms: C_26  and  O_27
REMARK                            x       y       z     vdW  Elec       q    Type
REMARK                         _______ _______ _______ _____ _____    ______ ____
ROOT
ATOM      1  C   UNL     1      -0.733   0.920  -1.034  0.00  0.00    +0.000 A 
ATOM      2  N   UNL     1      -1.200   2.082  -1.557  0.00  0.00    +0.000 NA
ATOM      3  N   UNL     1      -0.419   3.086  -1.199  0.00  0.00    +0.000 N 
ATOM      4  C   UNL     1       0.620   2.645  -0.454  0.00  0.00    +0.000 A 
ATOM      5  C   UNL     1       0.479   1.264  -0.447  0.00  0.00    +0.000 A 
ATOM      6  H   UNL     1      -0.574   4.028  -1.442  0.00  0.00    +0.000 HD
ENDROOT
BRANCH   5   7
ATOM      7  C   UNL     1       1.531   0.307  -0.169  0.00  0.00    +0.000 A 
ATOM      8  C   UNL     1       2.235  -0.252  -1.229  0.00  0.00    +0.000 A 
ATOM      9  C   UNL     1       3.099  -1.308  -1.039  0.00  0.00    +0.000 A 
ATOM     10  C   UNL     1       3.449  -1.651   0.260  0.00  0.00    +0.000 A 
ATOM     11  C   UNL     1       3.202  -0.707   1.248  0.00  0.00    +0.000 A 
ATOM     12  C   UNL     1       2.149   0.182   1.068  0.00  0.00    +0.000 A 
ATOM     13  O   UNL     1       4.083  -0.990   2.287  0.00  0.00    +0.000 OA
ATOM     14  C   UNL     1       4.935  -2.072   1.931  0.00  0.00    +0.000 C 
ATOM     15  O   UNL     1       4.504  -2.478   0.646  0.00  0.00    +0.000 OA
ENDBRANCH   5   7
BRANCH   1  18
ATOM     16  C   UNL     1      -3.434  -0.939   0.576  0.00  0.00    +0.000 A 
ATOM     17  C   UNL     1      -2.203  -0.357   0.442  0.00  0.00    +0.000 A 
ATOM     18  C   UNL     1      -1.509  -0.299  -0.761  0.00  0.00    +0.000 A 
ATOM     19  C   UNL     1      -1.992  -1.087  -1.790  0.00  0.00    +0.000 A 
ATOM     20  C   UNL     1      -3.149  -1.833  -1.608  0.00  0.00    +0.000 A 
ATOM     21  C   UNL     1      -3.941  -1.637  -0.494  0.00  0.00    +0.000 A 
BRANCH  16  23
ATOM     22  C   UNL     1      -5.627  -1.215   1.714  0.00  0.00    +0.000 C 
ATOM     23  C   UNL     1      -4.184  -0.802   1.861  0.00  0.00    +0.000 C 
ENDBRANCH  16  23
BRANCH  19  24
ATOM     24  O   UNL     1      -1.264  -1.103  -2.962  0.00  0.00    +0.000 OA
ATOM     25  H   UNL     1      -0.489  -0.583  -3.040  0.00  0.00    +0.000 HD
ENDBRANCH  19  24
BRANCH  21  26
ATOM     26  O   UNL     1      -5.181  -2.259  -0.367  0.00  0.00    +0.000 OA
ATOM     27  H   UNL     1      -5.540  -2.738  -1.087  0.00  0.00    +0.000 HD
ENDBRANCH  21  26
ENDBRANCH   1  18
BRANCH   4  28
ATOM     28  C   UNL     1       1.287   3.351   0.649  0.00  0.00    +0.000 C 
ATOM     29  O   UNL     1       0.621   3.929   1.562  0.00  0.00    +0.000 OA
BRANCH  28  30
ATOM     30  O   UNL     1       2.641   3.224   0.866  0.00  0.00    +0.000 OA
ATOM     31  H   UNL     1       3.181   2.806   0.224  0.00  0.00    +0.000 HD
ENDBRANCH  28  30
ENDBRANCH   4  28
TORSDOF 7
