REMARK  Name = 
REMARK  12 active torsions:
REMARK  status: ('A' for Active; 'I' for Inactive)
REMARK    1  A    between atoms: C_1  and  C_2
REMARK    2  A    between atoms: C_2  and  N_3
REMARK    3  A    between atoms: C_2  and  C_4
REMARK    4  A    between atoms: C_8  and  C_9
REMARK    5  A    between atoms: C_9  and  C_10
REMARK    6  A    between atoms: C_10  and  C_11
REMARK    7  A    between atoms: C_11  and  B_12
REMARK    8  A    between atoms: B_12  and  O_13
REMARK    9  A    between atoms: B_12  and  O_14
REMARK   10  A    between atoms: C_15  and  N_16
REMARK   11  A    between atoms: C_15  and  C_18
REMARK   12  A    between atoms: C_18  and  O_19
REMARK                            x       y       z     vdW  Elec       q    Type
REMARK                         _______ _______ _______ _____ _____    ______ ____
ROOT
ATOM      1  C   UNL     1      -4.136   1.939   0.000  0.00  0.00    +0.000 C 
ATOM      2  O   UNL     1      -4.472   2.693   0.000  0.00  0.00    +0.000 OA
ATOM      3  N   UNL     1      -3.316   1.853   0.000  0.00  0.00    +0.000 N 
ATOM      4  C   UNL     1      -2.764   2.466   0.000  0.00  0.00    +0.000 C 
ATOM      5  C   UNL     1      -2.010   2.130   0.000  0.00  0.00    +0.000 C 
ATOM      6  C   UNL     1      -2.096   1.310   0.000  0.00  0.00    +0.000 C 
ATOM      7  C   UNL     1      -2.903   1.138   0.000  0.00  0.00    +0.000 C 
ENDROOT
BRANCH   6   8
ATOM      8  N   UNL     1      -1.271   1.310   0.000  0.00  0.00    +0.000 NA
ATOM      9  H   UNL     1      -0.761   0.427   0.000  0.00  0.00    +0.000 HD
ATOM     10  H   UNL     1      -0.761   2.193   0.000  0.00  0.00    +0.000 HD
ENDBRANCH   6   8
BRANCH   1  12
ATOM     11  C   UNL     1      -5.442   1.358   0.000  0.00  0.00    +0.000 C 
ATOM     12  C   UNL     1      -4.621   1.272   0.000  0.00  0.00    +0.000 C 
BRANCH  12  13
ATOM     13  N   UNL     1      -4.286   0.518   0.000  0.00  0.00    +0.000 NA
ATOM     14  H   UNL     1      -4.885  -0.307   0.000  0.00  0.00    +0.000 HD
ATOM     15  H   UNL     1      -3.271   0.411   0.000  0.00  0.00    +0.000 HD
ENDBRANCH  12  13
ENDBRANCH   1  12
BRANCH   6  16
ATOM     16  C   UNL     1      -2.010   0.489   0.000  0.00  0.00    +0.000 C 
ATOM     17  O   UNL     1      -1.256   0.154   0.000  0.00  0.00    +0.000 OA
BRANCH  16  18
ATOM     18  O   UNL     1      -2.678   0.004   0.000  0.00  0.00    +0.000 OA
ATOM     19  H   UNL     1      -3.534   0.386   0.000  0.00  0.00    +0.000 HD
ENDBRANCH  16  18
ENDBRANCH   6  16
BRANCH   5  20
ATOM     20  C   UNL     1      -1.296   2.543   0.000  0.00  0.00    +0.000 C 
BRANCH  20  21
ATOM     21  C   UNL     1      -0.581   2.130   0.000  0.00  0.00    +0.000 C 
BRANCH  21  22
ATOM     22  C   UNL     1       0.133   2.543   0.000  0.00  0.00    +0.000 C 
BRANCH  22  23
ATOM     23  B   UNL     1       0.848   2.130   0.000  0.00  0.00    +0.000 B 
BRANCH  23  24
ATOM     24  O   UNL     1       1.562   2.543   0.000  0.00  0.00    +0.000 OA
ATOM     25  H   UNL     1       2.402   2.058   0.000  0.00  0.00    +0.000 HD
ENDBRANCH  23  24
BRANCH  23  26
ATOM     26  O   UNL     1       0.848   1.305   0.000  0.00  0.00    +0.000 OA
ATOM     27  H   UNL     1       0.008   0.820   0.000  0.00  0.00    +0.000 HD
ENDBRANCH  23  26
ENDBRANCH  22  23
ENDBRANCH  21  22
ENDBRANCH  20  21
ENDBRANCH   5  20
TORSDOF 11
