REMARK  Name = 124886
REMARK  13 active torsions:
REMARK  status: ('A' for Active; 'I' for Inactive)
REMARK    1  A    between atoms: SG_1  and  CB_16
REMARK    2  A    between atoms: O_4  and  C_18
REMARK    3  A    between atoms: O_6  and  C_20
REMARK    4  A    between atoms: N_8  and  CA_13
REMARK    5  A    between atoms: N_9  and  CA_14
REMARK    6  A    between atoms: N_10  and  CA_19
REMARK    7  A    between atoms: C_11  and  C_12
REMARK    8  A    between atoms: C_11  and  CA_14
REMARK    9  A    between atoms: C_12  and  C_15
REMARK   10  A    between atoms: CA_13  and  CB_16
REMARK   11  A    between atoms: CA_13  and  C_17
REMARK   12  A    between atoms: CA_14  and  C_18
REMARK   13  A    between atoms: CA_19  and  C_20
REMARK                            x       y       z     vdW  Elec       q    Type
REMARK                         _______ _______ _______ _____ _____    ______ ____
ROOT
ATOM      1  O   UNL     1       1.298   2.031  -0.889  0.00  0.00    +0.000 OA
ATOM      2  N   UNL     1      -0.014   0.298  -0.070  0.00  0.00    +0.000 N 
ATOM      3  C   UNL     1       1.181   0.971  -0.281  0.00  0.00    +0.000 C 
ATOM      4  H   UNL     1      -0.000  -0.588   0.427  0.00  0.00    +0.000 HD
ENDROOT
BRANCH   3   5
ATOM      5  C   UNL     1       2.356   0.227   0.332  0.00  0.00    +0.000 C 
BRANCH   5   6
ATOM      6  C   UNL     1       3.685   0.953   0.112  0.00  0.00    +0.000 C 
BRANCH   6   7
ATOM      7  CA  UNL     1       4.866   0.249   0.788  0.00  0.00    +0.000 C 
BRANCH   7   8
ATOM      8  N   UNL     1       6.096   1.002   0.531  0.00  0.00    +0.000 NA
ATOM      9  H1  UNL     1       6.868   0.581   1.048  0.00  0.00    +0.000 HD
ATOM     10  H2  UNL     1       5.998   1.950   0.892  0.00  0.00    +0.000 HD
ENDBRANCH   7   8
BRANCH   7  12
ATOM     11  OXT UNL     1       5.747  -1.400  -0.776  0.00  0.00    +0.000 OA
ATOM     12  C   UNL     1       5.080  -1.141   0.218  0.00  0.00    +0.000 C 
BRANCH  12  13
ATOM     13  O   UNL     1       4.418  -2.095   0.925  0.00  0.00    +0.000 OA
ATOM     14  H   UNL     1       4.549  -2.989   0.544  0.00  0.00    +0.000 HD
ENDBRANCH  12  13
ENDBRANCH   7  12
ENDBRANCH   6   7
ENDBRANCH   5   6
ENDBRANCH   3   5
BRANCH   2  15
ATOM     15  CA  UNL     1      -1.283   0.785  -0.558  0.00  0.00    +0.000 C 
BRANCH  15  18
ATOM     16  O   UNL     1      -2.164  -0.277   1.439  0.00  0.00    +0.000 OA
ATOM     17  N   UNL     1      -3.606   0.956   0.104  0.00  0.00    +0.000 N 
ATOM     18  C   ACE A   1      -2.372   0.424   0.451  0.00  0.00    +0.000 C 
ATOM     19  H   UNL     1      -3.689   1.540  -0.722  0.00  0.00    +0.000 HD
BRANCH  17  20
ATOM     20  CA  UNL     1      -4.798   0.733   0.888  0.00  0.00    +0.000 C 
BRANCH  20  22
ATOM     21  OXT UNL     1      -6.606  -0.854   0.990  0.00  0.00    +0.000 OA
ATOM     22  C   UNL     1      -5.562  -0.494   0.459  0.00  0.00    +0.000 C 
BRANCH  22  23
ATOM     23  O   UNL     1      -4.984  -1.160  -0.567  0.00  0.00    +0.000 OA
ATOM     24  H   UNL     1      -5.499  -1.954  -0.826  0.00  0.00    +0.000 HD
ENDBRANCH  22  23
ENDBRANCH  20  22
ENDBRANCH  17  20
ENDBRANCH  15  18
BRANCH  15  25
ATOM     25  CB  UNL     1      -1.587   0.301  -1.978  0.00  0.00    +0.000 C 
BRANCH  25  26
ATOM     26  SG  UNL     1      -1.751  -1.509  -2.118  0.00  0.00    +0.000 S 
ATOM     27  HG  UNL     1      -1.984  -1.538  -3.438  0.00  0.00    +0.000 HD
ENDBRANCH  25  26
ENDBRANCH  15  25
ENDBRANCH   2  15
TORSDOF 13
