REMARK  Name = 447392
REMARK  16 active torsions:
REMARK  status: ('A' for Active; 'I' for Inactive)
REMARK    1  A    between atoms: O_4  and  C_38
REMARK    2  A    between atoms: O_5  and  C_39
REMARK    3  A    between atoms: N_8  and  C_12
REMARK    4  A    between atoms: N_9  and  C_20
REMARK    5  A    between atoms: N_10  and  C_16
REMARK    6  A    between atoms: N_10  and  C_28
REMARK    7  A    between atoms: C_11  and  C_12
REMARK    8  A    between atoms: C_11  and  C_13
REMARK    9  A    between atoms: C_12  and  C_18
REMARK   10  A    between atoms: C_20  and  C_21
REMARK   11  A    between atoms: C_21  and  C_23
REMARK   12  A    between atoms: C_23  and  C_25
REMARK   13  A    between atoms: C_25  and  C_32
REMARK   14  A    between atoms: C_29  and  C_34
REMARK   15  A    between atoms: C_30  and  C_38
REMARK   16  A    between atoms: C_31  and  C_39
REMARK                            x       y       z     vdW  Elec       q    Type
REMARK                         _______ _______ _______ _____ _____    ______ ____
ROOT
ATOM      1  C   UNL     1      -1.939   0.784   0.743  0.00  0.00    +0.000 A 
ATOM      2  C   UNL     1      -1.520   1.757  -0.180  0.00  0.00    +0.000 A 
ATOM      3  C   UNL     1      -0.145   1.862  -0.498  0.00  0.00    +0.000 A 
ATOM      4  C   UNL     1       0.770   0.992   0.115  0.00  0.00    +0.000 A 
ATOM      5  C   UNL     1      -1.015  -0.072   1.342  0.00  0.00    +0.000 A 
ATOM      6  C   UNL     1       0.337   0.031   1.030  0.00  0.00    +0.000 A 
ATOM      7  C   UNL     1      -2.436   2.627  -0.793  0.00  0.00    +0.000 A 
ATOM      8  C   UNL     1       0.274   2.835  -1.420  0.00  0.00    +0.000 A 
ATOM      9  C   UNL     1      -2.002   3.588  -1.707  0.00  0.00    +0.000 A 
ATOM     10  C   UNL     1      -0.650   3.692  -2.020  0.00  0.00    +0.000 A 
ENDROOT
BRANCH   4  12
ATOM     11  O   UNL     1       3.895   2.619  -0.475  0.00  0.00    +0.000 OA
ATOM     12  N   UNL     1       2.142   1.050  -0.161  0.00  0.00    +0.000 N 
ATOM     13  C   UNL     1       2.879   2.244   0.101  0.00  0.00    +0.000 C 
BRANCH  12  14
ATOM     14  C   UNL     1       2.830  -0.107  -0.719  0.00  0.00    +0.000 A 
ATOM     15  C   UNL     1       3.890  -0.708  -0.041  0.00  0.00    +0.000 A 
ATOM     16  C   UNL     1       2.414  -0.612  -1.951  0.00  0.00    +0.000 A 
ATOM     17  C   UNL     1       4.535  -1.814  -0.595  0.00  0.00    +0.000 A 
ATOM     18  C   UNL     1       3.058  -1.718  -2.505  0.00  0.00    +0.000 A 
ATOM     19  C   UNL     1       4.119  -2.319  -1.827  0.00  0.00    +0.000 A 
BRANCH  15  21
ATOM     20  O   UNL     1       3.664  -0.130   2.270  0.00  0.00    +0.000 OA
ATOM     21  C   UNL     1       4.351  -0.205   1.248  0.00  0.00    +0.000 C 
BRANCH  21  22
ATOM     22  O   UNL     1       5.653   0.184   1.215  0.00  0.00    +0.000 OA
ATOM     23  H   UNL     1       5.955   0.521   2.086  0.00  0.00    +0.000 HD
ENDBRANCH  21  22
ENDBRANCH  15  21
ENDBRANCH  12  14
BRANCH  13  25
ATOM     24  O   UNL     1       1.416   2.928   1.853  0.00  0.00    +0.000 OA
ATOM     25  C   UNL     1       2.434   3.134   1.224  0.00  0.00    +0.000 C 
BRANCH  25  26
ATOM     26  O   UNL     1       3.279   4.168   1.341  0.00  0.00    +0.000 OA
ATOM     27  H   UNL     1       3.006   4.793   2.047  0.00  0.00    +0.000 HD
ENDBRANCH  25  26
ENDBRANCH  13  25
ENDBRANCH   4  12
BRANCH   1  28
ATOM     28  C   UNL     1      -3.389   0.617   1.128  0.00  0.00    +0.000 C 
BRANCH  28  29
ATOM     29  C   UNL     1      -4.132  -0.374   0.225  0.00  0.00    +0.000 C 
BRANCH  29  31
ATOM     30  O   UNL     1      -6.390   1.123  -0.818  0.00  0.00    +0.000 OA
ATOM     31  N   UNL     1      -5.518  -0.512   0.593  0.00  0.00    +0.000 N 
ATOM     32  C   UNL     1      -6.533   0.253   0.037  0.00  0.00    +0.000 C 
ATOM     33  C   UNL     1      -7.888  -0.112   0.580  0.00  0.00    +0.000 C 
ATOM     34  H   UNL     1      -5.758  -1.192   1.309  0.00  0.00    +0.000 HD
ENDBRANCH  29  31
BRANCH  29  37
ATOM     35  O   UNL     1      -3.825  -2.583   1.175  0.00  0.00    +0.000 OA
ATOM     36  N   UNL     1      -2.563  -1.983  -0.682  0.00  0.00    +0.000 N 
ATOM     37  C   UNL     1      -3.499  -1.758   0.324  0.00  0.00    +0.000 C 
ATOM     38  H   UNL     1      -2.355  -1.238  -1.340  0.00  0.00    +0.000 HD
BRANCH  36  39
ATOM     39  C   UNL     1      -1.856  -3.224  -0.847  0.00  0.00    +0.000 C 
BRANCH  39  40
ATOM     40  C   UNL     1      -0.552  -3.234  -0.059  0.00  0.00    +0.000 C 
BRANCH  40  41
ATOM     41  C   UNL     1       0.192  -4.558  -0.232  0.00  0.00    +0.000 C 
BRANCH  41  42
ATOM     42  C   UNL     1       1.482  -4.583   0.589  0.00  0.00    +0.000 C 
ATOM     43  C   UNL     1       2.241  -5.886   0.393  0.00  0.00    +0.000 C 
ENDBRANCH  41  42
ENDBRANCH  40  41
ENDBRANCH  39  40
ENDBRANCH  36  39
ENDBRANCH  29  37
ENDBRANCH  28  29
ENDBRANCH   1  28
TORSDOF 14
