REMARK  Name = 
REMARK  25 active torsions:
REMARK  status: ('A' for Active; 'I' for Inactive)
REMARK    1  A    between atoms: NE_4  and  CD_5
REMARK    2  A    between atoms: CD_5  and  CG_6
REMARK    3  A    between atoms: CG_6  and  CB_7
REMARK    4  A    between atoms: CB_7  and  CA_8
REMARK    5  A    between atoms: CA_8  and  N_9
REMARK    6  A    between atoms: CA_8  and  C_33
REMARK    7  A    between atoms: C_10  and  C_12
REMARK    8  A    between atoms: C_12  and  C_14
REMARK    9  A    between atoms: C_14  and  C_15
REMARK   10  A    between atoms: C_14  and  N_22
REMARK   11  A    between atoms: C_15  and  C_16
REMARK   12  A    between atoms: C_23  and  O_25
REMARK   13  A    between atoms: O_25  and  C_26
REMARK   14  A    between atoms: C_26  and  C_27
REMARK   15  A    between atoms: N_35  and  CA_36
REMARK   16  A    between atoms: CA_36  and  CB_37
REMARK   17  A    between atoms: CA_36  and  C_42
REMARK   18  A    between atoms: CB_37  and  CG_38
REMARK   19  A    between atoms: CG_38  and  CD_39
REMARK   20  A    between atoms: CD_39  and  OE2_41
REMARK   21  A    between atoms: N_44  and  CA_45
REMARK   22  A    between atoms: CA_45  and  CB_46
REMARK   23  A    between atoms: CA_45  and  C_53
REMARK   24  A    between atoms: CB_46  and  CG_47
REMARK   25  A    between atoms: C_53  and  OXT_55
REMARK                            x       y       z     vdW  Elec       q    Type
REMARK                         _______ _______ _______ _____ _____    ______ ____
ROOT
ATOM      1  CA  ARG A   1      -0.246  -1.122  -2.256  0.00  0.00    +0.000 C 
ENDROOT
BRANCH   1   2
ATOM      2  N   ARG A   1       1.177  -1.069  -1.521  0.00  0.00    +0.000 N 
ATOM      3  C   UNK A   0       1.479   0.130  -0.852  0.00  0.00    +0.000 C 
ATOM      4  O   UNK A   0       0.603   1.047  -0.880  0.00  0.00    +0.000 OA
ATOM      5  H   ARG A   1       1.802  -1.830  -1.537  0.00  0.00    +0.000 HD
BRANCH   3   6
ATOM      6  C   UNK A   0       2.373   0.115   0.273  0.00  0.00    +0.000 C 
ATOM      7  O   UNK A   0       2.144   0.701   1.371  0.00  0.00    +0.000 OA
BRANCH   6   8
ATOM      8  C   UNK A   0       3.977   0.081  -0.038  0.00  0.00    +0.000 C 
BRANCH   8   9
ATOM      9  N   UNK A   0       3.870   1.273  -1.102  0.00  0.00    +0.000 N 
ATOM     10  C   UNK A   0       4.388   2.502  -0.591  0.00  0.00    +0.000 C 
ATOM     11  O   UNK A   0       3.980   2.877   0.523  0.00  0.00    +0.000 OA
ATOM     12  H   UNK A   0       3.490   1.171  -2.005  0.00  0.00    +0.000 HD
BRANCH  10  13
ATOM     13  O   UNK A   0       5.279   3.323  -1.246  0.00  0.00    +0.000 OA
BRANCH  13  14
ATOM     14  C   UNK A   0       6.229   4.140  -0.558  0.00  0.00    +0.000 C 
BRANCH  14  15
ATOM     15  C   UNK A   0       7.226   3.191   0.032  0.00  0.00    +0.000 A 
ATOM     16  C   UNK A   0       6.964   2.473   1.184  0.00  0.00    +0.000 A 
ATOM     17  C   UNK A   0       7.458   1.218   1.435  0.00  0.00    +0.000 A 
ATOM     18  C   UNK A   0       8.342   0.679   0.523  0.00  0.00    +0.000 A 
ATOM     19  C   UNK A   0       8.798   1.435  -0.535  0.00  0.00    +0.000 A 
ATOM     20  C   UNK A   0       8.236   2.683  -0.777  0.00  0.00    +0.000 A 
ENDBRANCH  14  15
ENDBRANCH  13  14
ENDBRANCH  10  13
ENDBRANCH   8   9
BRANCH   8  21
ATOM     21  C   UNK A   0       3.805  -1.077  -1.230  0.00  0.00    +0.000 C 
BRANCH  21  22
ATOM     22  C   UNK A   0       4.729  -2.189  -0.810  0.00  0.00    +0.000 C 
ATOM     23  C   UNK A   0       6.109  -2.073  -1.432  0.00  0.00    +0.000 C 
ATOM     24  C   UNK A   0       6.793  -0.900  -0.758  0.00  0.00    +0.000 C 
ATOM     25  C   UNK A   0       7.057  -1.286   0.668  0.00  0.00    +0.000 C 
ATOM     26  C   UNK A   0       5.752  -1.469   1.373  0.00  0.00    +0.000 C 
ATOM     27  C   UNK A   0       4.788  -2.382   0.676  0.00  0.00    +0.000 C 
ENDBRANCH  21  22
ENDBRANCH   8  21
ENDBRANCH   6   8
ENDBRANCH   3   6
ENDBRANCH   1   2
BRANCH   1  28
ATOM     28  C   ARG A   1      -1.132  -1.242  -0.886  0.00  0.00    +0.000 C 
ATOM     29  O   ARG A   1      -0.555  -1.509   0.157  0.00  0.00    +0.000 OA
ATOM     30  N   GLU A   2      -2.420  -0.624  -0.996  0.00  0.00    +0.000 N 
ATOM     31  H   GLU A   2      -2.701   0.048  -1.658  0.00  0.00    +0.000 HD
BRANCH  30  32
ATOM     32  CA  GLU A   2      -3.308  -1.251   0.179  0.00  0.00    +0.000 C 
BRANCH  32  33
ATOM     33  C   GLU A   2      -4.638  -0.417  -0.303  0.00  0.00    +0.000 C 
ATOM     34  O   GLU A   2      -5.154  -0.975  -1.323  0.00  0.00    +0.000 OA
ATOM     35  N   PHE A   3      -5.481  -0.249   0.779  0.00  0.00    +0.000 N 
ATOM     36  H   PHE A   3      -5.110  -0.225   1.690  0.00  0.00    +0.000 HD
BRANCH  35  37
ATOM     37  CA  PHE A   3      -7.050  -0.092   0.557  0.00  0.00    +0.000 C 
BRANCH  37  38
ATOM     38  C   PHE A   3      -7.197  -1.613  -0.043  0.00  0.00    +0.000 C 
ATOM     39  O   PHE A   3      -8.338  -1.658  -0.575  0.00  0.00    +0.000 OA
BRANCH  38  40
ATOM     40  OXT PHE A   3      -6.903  -2.480   1.018  0.00  0.00    +0.000 OA
ATOM     41  HXT PHE A   3      -6.058  -2.457   1.421  0.00  0.00    +0.000 HD
ENDBRANCH  38  40
ENDBRANCH  37  38
BRANCH  37  42
ATOM     42  CB  PHE A   3      -6.896   0.559  -0.977  0.00  0.00    +0.000 C 
BRANCH  42  43
ATOM     43  CG  PHE A   3      -6.935   2.039  -0.761  0.00  0.00    +0.000 C 
ATOM     44  CD1 PHE A   3      -6.578   2.481   0.612  0.00  0.00    +0.000 C 
ATOM     45  CE1 PHE A   3      -7.747   2.809   1.491  0.00  0.00    +0.000 C 
ATOM     46  CZ  PHE A   3      -9.081   2.578   0.839  0.00  0.00    +0.000 C 
ATOM     47  CE2 PHE A   3      -9.177   3.166  -0.540  0.00  0.00    +0.000 C 
ATOM     48  CD2 PHE A   3      -8.037   2.768  -1.428  0.00  0.00    +0.000 C 
ENDBRANCH  42  43
ENDBRANCH  37  42
ENDBRANCH  35  37
ENDBRANCH  32  33
BRANCH  32  49
ATOM     49  CB  GLU A   2      -2.898  -0.095   1.308  0.00  0.00    +0.000 C 
BRANCH  49  50
ATOM     50  CG  GLU A   2      -2.192   1.001   0.700  0.00  0.00    +0.000 C 
BRANCH  50  51
ATOM     51  CD  GLU A   2      -2.960   2.056   0.026  0.00  0.00    +0.000 C 
ATOM     52  OE1 GLU A   2      -3.523   2.886   0.805  0.00  0.00    +0.000 OA
BRANCH  51  53
ATOM     53  OE2 GLU A   2      -2.319   2.654  -1.067  0.00  0.00    +0.000 OA
ATOM     54  HE2 GLU A   2      -1.875   2.122  -1.698  0.00  0.00    +0.000 HD
ENDBRANCH  51  53
ENDBRANCH  50  51
ENDBRANCH  49  50
ENDBRANCH  32  49
ENDBRANCH  30  32
ENDBRANCH   1  28
BRANCH   1  55
ATOM     55  CB  ARG A   1      -0.207  -2.784  -2.436  0.00  0.00    +0.000 C 
BRANCH  55  56
ATOM     56  CG  ARG A   1       0.476  -3.334  -1.253  0.00  0.00    +0.000 C 
BRANCH  56  57
ATOM     57  CD  ARG A   1      -0.019  -4.622  -0.717  0.00  0.00    +0.000 C 
BRANCH  57  61
ATOM     58  NH1 ARG A   1      -1.226  -4.102   1.524  0.00  0.00    +0.000 NA
ATOM     59  CZ  ARG A   1      -0.385  -4.085   1.624  0.00  0.00    +0.000 C 
ATOM     60  NH2 ARG A   1       0.173  -3.357   2.717  0.00  0.00    +0.000 N 
ATOM     61  NE  ARG A   1       0.400  -4.808   0.675  0.00  0.00    +0.000 N 
ATOM     62  HH1 ARG A   1      -1.807  -3.618   2.154  0.00  0.00    +0.000 HD
ATOM     63 HH21 ARG A   1      -0.417  -2.876   3.341  0.00  0.00    +0.000 HD
ATOM     64 HH22 ARG A   1       1.149  -3.336   2.848  0.00  0.00    +0.000 HD
ATOM     65  HE  ARG A   1       1.158  -5.382   0.933  0.00  0.00    +0.000 HD
ENDBRANCH  57  61
ENDBRANCH  56  57
ENDBRANCH  55  56
ENDBRANCH   1  55
TORSDOF 25
