REMARK  Name = 5289465
REMARK  12 active torsions:
REMARK  status: ('A' for Active; 'I' for Inactive)
REMARK    1  A    between atoms: O_1  and  C_20
REMARK    2  A    between atoms: O_3  and  C_31
REMARK    3  A    between atoms: OE1_5  and  CD_32
REMARK    4  A    between atoms: N_9  and  C_16
REMARK    5  A    between atoms: N_9  and  C_19
REMARK    6  A    between atoms: N_11  and  CA_21
REMARK    7  A    between atoms: C_14  and  C_16
REMARK    8  A    between atoms: CA_21  and  CB_22
REMARK    9  A    between atoms: CA_21  and  C_31
REMARK   10  A    between atoms: CB_22  and  CG_29
REMARK   11  A    between atoms: C_25  and  C_30
REMARK   12  A    between atoms: CG_29  and  CD_32
REMARK                            x       y       z     vdW  Elec       q    Type
REMARK                         _______ _______ _______ _____ _____    ______ ____
ROOT
ATOM      1  C   UNL     1      -0.312   0.240  -0.260  0.00  0.00    +0.000 A 
ATOM      2  C   UNL     1       0.464  -0.675   0.452  0.00  0.00    +0.000 A 
ATOM      3  C   UNL     1       0.242   0.941  -1.331  0.00  0.00    +0.000 A 
ATOM      4  C   UNL     1       2.349  -0.189  -0.978  0.00  0.00    +0.000 A 
ATOM      5  C   UNL     1       1.794  -0.889   0.093  0.00  0.00    +0.000 A 
ATOM      6  C   UNL     1       1.573   0.726  -1.690  0.00  0.00    +0.000 A 
ENDROOT
BRANCH   4   9
ATOM      7  O   UNL     1       4.116  -0.206  -2.519  0.00  0.00    +0.000 OA
ATOM      8  N   UNL     1       4.606  -0.842  -0.344  0.00  0.00    +0.000 N 
ATOM      9  C   ACE A   0       3.736  -0.413  -1.353  0.00  0.00    +0.000 C 
ATOM     10  H   UNL     1       4.269  -0.920   0.610  0.00  0.00    +0.000 HD
BRANCH   8  11
ATOM     11  CA  UNL     1       6.015  -1.085  -0.553  0.00  0.00    +0.000 C 
BRANCH  11  13
ATOM     12  OXT UNL     1       5.696  -2.785   1.161  0.00  0.00    +0.000 OA
ATOM     13  C   UNL     1       6.414  -2.253   0.324  0.00  0.00    +0.000 C 
BRANCH  13  14
ATOM     14  O   UNL     1       7.673  -2.686   0.051  0.00  0.00    +0.000 OA
ATOM     15  H   UNL     1       7.925  -3.453   0.608  0.00  0.00    +0.000 HD
ENDBRANCH  13  14
ENDBRANCH  11  13
BRANCH  11  16
ATOM     16  CB  UNL     1       6.870   0.170  -0.340  0.00  0.00    +0.000 C 
BRANCH  16  17
ATOM     17  CG  UNL     1       6.844   0.764   1.075  0.00  0.00    +0.000 C 
BRANCH  17  19
ATOM     18  OE2 UNL     1       8.350   2.534   0.343  0.00  0.00    +0.000 OA
ATOM     19  CD  UNL     1       7.693   2.007   1.230  0.00  0.00    +0.000 C 
BRANCH  19  20
ATOM     20  OE1 UNL     1       7.680   2.465   2.510  0.00  0.00    +0.000 OA
ATOM     21  HE1 UNL     1       8.244   3.260   2.619  0.00  0.00    +0.000 HD
ENDBRANCH  19  20
ENDBRANCH  17  19
ENDBRANCH  16  17
ENDBRANCH  11  16
ENDBRANCH   8  11
ENDBRANCH   4   9
BRANCH   1  22
ATOM     22  N   UNL     1      -1.637   0.452   0.097  0.00  0.00    +0.000 N 
ATOM     23  H   UNL     1      -1.982  -0.042   0.913  0.00  0.00    +0.000 HD
BRANCH  22  24
ATOM     24  C   UNL     1      -2.512   1.374  -0.579  0.00  0.00    +0.000 C 
BRANCH  24  30
ATOM     25  N   UNL     1      -4.425  -0.010   0.013  0.00  0.00    +0.000 N 
ATOM     26  N   UNL     1      -6.190   2.173  -0.101  0.00  0.00    +0.000 N 
ATOM     27  N   UNL     1      -8.012   0.721   0.327  0.00  0.00    +0.000 NA
ATOM     28  N   UNL     1      -7.670  -1.650   0.562  0.00  0.00    +0.000 NA
ATOM     29  N   UNL     1      -9.818  -0.726   0.715  0.00  0.00    +0.000 N 
ATOM     30  C   UNL     1      -3.892   1.345   0.066  0.00  0.00    +0.000 C 
ATOM     31  C   UNL     1      -4.851   2.308  -0.645  0.00  0.00    +0.000 C 
ATOM     32  C   UNL     1      -5.787  -0.182   0.195  0.00  0.00    +0.000 A 
ATOM     33  C   UNL     1      -6.682   0.892   0.142  0.00  0.00    +0.000 A 
ATOM     34  C   UNL     1      -6.351  -1.433   0.389  0.00  0.00    +0.000 A 
ATOM     35  C   UNL     1      -8.431  -0.544   0.526  0.00  0.00    +0.000 A 
ATOM     36  H   UNL     1      -3.810  -0.802   0.153  0.00  0.00    +0.000 HD
ATOM     37  H   UNL     1      -6.847   2.940  -0.163  0.00  0.00    +0.000 HD
ATOM     38  H   UNL     1     -10.181  -1.657   0.867  0.00  0.00    +0.000 HD
ATOM     39  H   UNL     1     -10.432   0.076   0.696  0.00  0.00    +0.000 HD
BRANCH  34  40
ATOM     40  O   UNL     1      -5.546  -2.542   0.423  0.00  0.00    +0.000 OA
ATOM     41  H   UNL     1      -6.144  -3.296   0.572  0.00  0.00    +0.000 HD
ENDBRANCH  34  40
ENDBRANCH  24  30
ENDBRANCH  22  24
ENDBRANCH   1  22
TORSDOF 12
