REMARK  Name = 
REMARK  43 active torsions:
REMARK  status: ('A' for Active; 'I' for Inactive)
REMARK    1  A    between atoms: N_1  and  C_2
REMARK    2  A    between atoms: C_2  and  C_3
REMARK    3  A    between atoms: C_3  and  C_4
REMARK    4  A    between atoms: C_4  and  C_5
REMARK    5  A    between atoms: C_5  and  N_6
REMARK    6  A    between atoms: N_6  and  C_7
REMARK    7  A    between atoms: C_7  and  C_8
REMARK    8  A    between atoms: C_8  and  C_9
REMARK    9  A    between atoms: C_9  and  N_10
REMARK   10  A    between atoms: C_11  and  C_13
REMARK   11  A    between atoms: C_13  and  N_14
REMARK   12  A    between atoms: C_15  and  C_17
REMARK   13  A    between atoms: C_17  and  C_18
REMARK   14  A    between atoms: C_17  and  N_49
REMARK   15  A    between atoms: C_18  and  S_19
REMARK   16  A    between atoms: S_19  and  S_20
REMARK   17  A    between atoms: S_20  and  C_21
REMARK   18  A    between atoms: C_21  and  C_22
REMARK   19  A    between atoms: C_22  and  N_23
REMARK   20  A    between atoms: C_22  and  C_33
REMARK   21  A    between atoms: C_24  and  C_26
REMARK   22  A    between atoms: C_26  and  C_27
REMARK   23  A    between atoms: C_27  and  C_28
REMARK   24  A    between atoms: C_28  and  N_29
REMARK   25  A    between atoms: C_28  and  C_30
REMARK   26  A    between atoms: C_30  and  O_32
REMARK   27  A    between atoms: N_35  and  C_36
REMARK   28  A    between atoms: C_36  and  C_37
REMARK   29  A    between atoms: N_39  and  C_40
REMARK   30  A    between atoms: C_40  and  C_41
REMARK   31  A    between atoms: C_41  and  C_42
REMARK   32  A    between atoms: C_42  and  N_43
REMARK   33  A    between atoms: N_43  and  C_44
REMARK   34  A    between atoms: C_44  and  C_45
REMARK   35  A    between atoms: C_45  and  C_46
REMARK   36  A    between atoms: C_46  and  C_47
REMARK   37  A    between atoms: C_47  and  N_48
REMARK   38  A    between atoms: C_50  and  C_52
REMARK   39  A    between atoms: C_52  and  C_53
REMARK   40  A    between atoms: C_53  and  C_54
REMARK   41  A    between atoms: C_54  and  N_55
REMARK   42  A    between atoms: C_54  and  C_56
REMARK   43  A    between atoms: C_56  and  O_58
REMARK                            x       y       z     vdW  Elec       q    Type
REMARK                         _______ _______ _______ _____ _____    ______ ____
ROOT
ATOM      1  S   UNK     1       0.440  -1.209   1.724  0.00  0.00    +0.000 S 
ENDROOT
BRANCH   1   2
ATOM      2  C   UNK     1       2.175  -1.617   1.320  0.00  0.00    +0.000 C 
BRANCH   2   3
ATOM      3  C   UNK     1       2.162  -1.231  -0.315  0.00  0.00    +0.000 C 
BRANCH   3   5
ATOM      4  N   UNK     1       3.217   1.020   0.270  0.00  0.00    +0.000 N 
ATOM      5  C   UNK     1       3.521  -0.315  -0.169  0.00  0.00    +0.000 C 
ATOM      6  O   UNK     1       4.464  -0.865   0.415  0.00  0.00    +0.000 OA
ATOM      7  H   UNK     1       2.327   1.407   0.103  0.00  0.00    +0.000 HD
BRANCH   4   8
ATOM      8  C   UNK     1       4.240   1.798   0.965  0.00  0.00    +0.000 C 
BRANCH   8  10
ATOM      9  N   UNK     1       6.574   1.543  -0.065  0.00  0.00    +0.000 N 
ATOM     10  C   UNK     1       5.313   2.217   0.042  0.00  0.00    +0.000 C 
ATOM     11  O   UNK     1       5.343   3.452  -0.256  0.00  0.00    +0.000 OA
ATOM     12  H   UNK     1       6.997   1.073   0.689  0.00  0.00    +0.000 HD
BRANCH   9  13
ATOM     13  C   UNK     1       7.173   1.618  -1.396  0.00  0.00    +0.000 C 
BRANCH  13  14
ATOM     14  C   UNK     1       8.671   1.666  -1.353  0.00  0.00    +0.000 C 
BRANCH  14  15
ATOM     15  C   UNK     1       9.240   1.631   0.036  0.00  0.00    +0.000 C 
BRANCH  15  16
ATOM     16  N   UNK     1       8.881   2.779   0.833  0.00  0.00    +0.000 NA
ATOM     17  H   UNK     1       7.929   2.651   1.175  0.00  0.00    +0.000 HD
BRANCH  16  18
ATOM     18  C   UNK     1       8.944   4.015   0.101  0.00  0.00    +0.000 C 
BRANCH  18  19
ATOM     19  C   UNK     1      10.147   4.097  -0.819  0.00  0.00    +0.000 C 
BRANCH  19  20
ATOM     20  C   UNK     1      10.583   5.540  -0.875  0.00  0.00    +0.000 C 
BRANCH  20  21
ATOM     21  C   UNK     1      10.701   6.133   0.524  0.00  0.00    +0.000 C 
BRANCH  21  22
ATOM     22  N   UNK     1      11.578   7.091   0.600  0.00  0.00    +0.000 NA
ATOM     23  H   UNK     1      11.611   7.446   1.555  0.00  0.00    +0.000 HD
ATOM     24  H   UNK     1      11.314   7.845  -0.034  0.00  0.00    +0.000 HD
ENDBRANCH  21  22
ENDBRANCH  20  21
ENDBRANCH  19  20
ENDBRANCH  18  19
ENDBRANCH  16  18
ENDBRANCH  15  16
ENDBRANCH  14  15
ENDBRANCH  13  14
ENDBRANCH   9  13
ENDBRANCH   8  10
ENDBRANCH   4   8
ENDBRANCH   3   5
BRANCH   3  25
ATOM     25  N   UNK     1       2.989  -2.545  -0.734  0.00  0.00    +0.000 N 
ATOM     26  C   UNK     1       2.439  -3.729  -0.190  0.00  0.00    +0.000 C 
ATOM     27  O   UNK     1       2.485  -3.709   1.079  0.00  0.00    +0.000 OA
ATOM     28  H   UNK     1       3.790  -2.528  -1.306  0.00  0.00    +0.000 HD
BRANCH  26  29
ATOM     29  C   UNK     1       2.162  -4.984  -0.891  0.00  0.00    +0.000 C 
BRANCH  29  30
ATOM     30  C   UNK     1       3.373  -5.841  -1.123  0.00  0.00    +0.000 C 
BRANCH  30  31
ATOM     31  C   UNK     1       3.613  -6.628   0.338  0.00  0.00    +0.000 C 
BRANCH  31  32
ATOM     32  N   UNK     1       2.397  -7.636   0.043  0.00  0.00    +0.000 NA
ATOM     33  H   UNK     1       2.466  -7.981  -0.914  0.00  0.00    +0.000 HD
ATOM     34  H   UNK     1       1.512  -7.144   0.165  0.00  0.00    +0.000 HD
ENDBRANCH  31  32
BRANCH  31  35
ATOM     35  C   UNK     1       4.688  -7.666  -0.351  0.00  0.00    +0.000 C 
ATOM     36  O   UNK     1       5.696  -7.040  -0.790  0.00  0.00    +0.000 OA
BRANCH  35  37
ATOM     37  O   UNK     1       4.950  -8.729   0.506  0.00  0.00    +0.000 OA
ATOM     38  H   UNK     1       4.242  -9.229   0.862  0.00  0.00    +0.000 HD
ENDBRANCH  35  37
ENDBRANCH  31  35
ENDBRANCH  30  31
ENDBRANCH  29  30
ENDBRANCH  26  29
ENDBRANCH   3  25
ENDBRANCH   2   3
ENDBRANCH   1   2
BRANCH   1  39
ATOM     39  S   UNK     1      -0.913  -2.529   0.798  0.00  0.00    +0.000 S 
BRANCH  39  40
ATOM     40  C   UNK     1      -1.370  -2.060  -0.853  0.00  0.00    +0.000 C 
BRANCH  40  41
ATOM     41  C   UNK     1      -1.099  -0.410  -0.980  0.00  0.00    +0.000 C 
BRANCH  41  42
ATOM     42  N   UNK     1      -1.807  -0.129   0.435  0.00  0.00    +0.000 N 
ATOM     43  C   UNK     1      -1.722   1.258   0.793  0.00  0.00    +0.000 C 
ATOM     44  O   UNK     1      -0.890   2.026   0.220  0.00  0.00    +0.000 OA
ATOM     45  H   UNK     1      -2.243  -0.819   0.985  0.00  0.00    +0.000 HD
BRANCH  43  46
ATOM     46  C   UNK     1      -2.165   1.685   2.150  0.00  0.00    +0.000 C 
BRANCH  46  47
ATOM     47  C   UNK     1      -3.636   2.007   2.160  0.00  0.00    +0.000 C 
BRANCH  47  48
ATOM     48  C   UNK     1      -4.312   0.545   1.687  0.00  0.00    +0.000 C 
BRANCH  48  49
ATOM     49  N   UNK     1      -5.342   0.568   2.921  0.00  0.00    +0.000 NA
ATOM     50  H   UNK     1      -5.768   1.492   2.992  0.00  0.00    +0.000 HD
ATOM     51  H   UNK     1      -4.843   0.356   3.785  0.00  0.00    +0.000 HD
ENDBRANCH  48  49
BRANCH  48  52
ATOM     52  C   UNK     1      -5.379   1.279   0.674  0.00  0.00    +0.000 C 
ATOM     53  O   UNK     1      -5.973   2.251   1.144  0.00  0.00    +0.000 OA
BRANCH  52  54
ATOM     54  O   UNK     1      -4.952   1.194  -0.657  0.00  0.00    +0.000 OA
ATOM     55  H   UNK     1      -4.504   0.428  -0.958  0.00  0.00    +0.000 HD
ENDBRANCH  52  54
ENDBRANCH  48  52
ENDBRANCH  47  48
ENDBRANCH  46  47
ENDBRANCH  43  46
ENDBRANCH  41  42
BRANCH  41  56
ATOM     56  C   UNK     1      -2.527  -0.212  -1.775  0.00  0.00    +0.000 C 
ATOM     57  O   UNK     1      -2.528  -0.811  -2.879  0.00  0.00    +0.000 OA
ATOM     58  N   UNK     1      -2.976   1.130  -1.769  0.00  0.00    +0.000 N 
ATOM     59  H   UNK     1      -2.440   1.858  -1.380  0.00  0.00    +0.000 HD
BRANCH  58  60
ATOM     60  C   UNK     1      -4.283   1.369  -2.376  0.00  0.00    +0.000 C 
BRANCH  60  61
ATOM     61  C   UNK     1      -5.304   1.114  -1.315  0.00  0.00    +0.000 C 
ATOM     62  O   UNK     1      -6.012   2.058  -0.851  0.00  0.00    +0.000 OA
ATOM     63  N   UNK     1      -5.382  -0.177  -0.701  0.00  0.00    +0.000 N 
ATOM     64  H   UNK     1      -4.957  -0.945  -1.147  0.00  0.00    +0.000 HD
BRANCH  63  65
ATOM     65  C   UNK     1      -6.075  -0.387   0.566  0.00  0.00    +0.000 C 
BRANCH  65  66
ATOM     66  C   UNK     1      -7.404  -1.084   0.301  0.00  0.00    +0.000 C 
BRANCH  66  67
ATOM     67  C   UNK     1      -8.431  -0.733   1.358  0.00  0.00    +0.000 C 
BRANCH  67  68
ATOM     68  N   UNK     1      -9.092   0.475   0.919  0.00  0.00    +0.000 NA
ATOM     69  H   UNK     1      -8.445   1.020   0.349  0.00  0.00    +0.000 HD
BRANCH  68  70
ATOM     70  C   UNK     1     -10.277   0.173   0.131  0.00  0.00    +0.000 C 
BRANCH  70  71
ATOM     71  C   UNK     1     -10.505   1.285  -0.869  0.00  0.00    +0.000 C 
BRANCH  71  72
ATOM     72  C   UNK     1     -11.367   2.388  -0.285  0.00  0.00    +0.000 C 
BRANCH  72  73
ATOM     73  C   UNK     1     -12.762   1.890   0.015  0.00  0.00    +0.000 C 
BRANCH  73  74
ATOM     74  N   UNK     1     -13.674   2.977  -0.231  0.00  0.00    +0.000 NA
ATOM     75  H   UNK     1     -13.430   3.767   0.367  0.00  0.00    +0.000 HD
ATOM     76  H   UNK     1     -14.626   2.676  -0.023  0.00  0.00    +0.000 HD
ENDBRANCH  73  74
ENDBRANCH  72  73
ENDBRANCH  71  72
ENDBRANCH  70  71
ENDBRANCH  68  70
ENDBRANCH  67  68
ENDBRANCH  66  67
ENDBRANCH  65  66
ENDBRANCH  63  65
ENDBRANCH  60  61
ENDBRANCH  58  60
ENDBRANCH  41  56
ENDBRANCH  40  41
ENDBRANCH  39  40
ENDBRANCH   1  39
TORSDOF 43
