REMARK  Name = 448249
REMARK  12 active torsions:
REMARK  status: ('A' for Active; 'I' for Inactive)
REMARK    1  A    between atoms: S_1  and  C_11
REMARK    2  A    between atoms: O_4  and  C_24
REMARK    3  A    between atoms: N_6  and  CA_8
REMARK    4  A    between atoms: N_7  and  CA_15
REMARK    5  A    between atoms: CA_8  and  CB_9
REMARK    6  A    between atoms: CA_8  and  C_10
REMARK    7  A    between atoms: CB_9  and  CG_12
REMARK    8  A    between atoms: C_11  and  C_13
REMARK    9  A    between atoms: C_11  and  C_14
REMARK   10  A    between atoms: C_14  and  C_16
REMARK   11  A    between atoms: CA_15  and  CB_19
REMARK   12  A    between atoms: CA_15  and  C_24
REMARK                            x       y       z     vdW  Elec       q    Type
REMARK                         _______ _______ _______ _____ _____    ______ ____
ROOT
ATOM      1  CA  UNL     1      -1.174  -0.186   0.593  0.00  0.00    +0.000 C 
ENDROOT
BRANCH   1   4
ATOM      2  O   UNL     1      -2.614   1.371   1.766  0.00  0.00    +0.000 OA
ATOM      3  N   UNL     1      -3.389   0.381  -0.187  0.00  0.00    +0.000 N 
ATOM      4  C   UNL     1      -2.459   0.602   0.820  0.00  0.00    +0.000 C 
ATOM      5  H   UNL     1      -3.162  -0.268  -0.936  0.00  0.00    +0.000 HD
BRANCH   3   6
ATOM      6  CA  UNL     1      -4.673   1.042  -0.241  0.00  0.00    +0.000 C 
ATOM      7  CB  UNL     1      -4.571   2.345  -1.019  0.00  0.00    +0.000 C 
BRANCH   6   9
ATOM      8  OXT UNL     1      -6.920   0.476  -0.928  0.00  0.00    +0.000 OA
ATOM      9  C   UNL     1      -5.741   0.147  -0.846  0.00  0.00    +0.000 C 
BRANCH   9  10
ATOM     10  O   UNL     1      -5.294  -1.055  -1.281  0.00  0.00    +0.000 OA
ATOM     11  H   UNL     1      -6.016  -1.601  -1.658  0.00  0.00    +0.000 HD
ENDBRANCH   9  10
ENDBRANCH   6   9
ENDBRANCH   3   6
ENDBRANCH   1   4
BRANCH   1  13
ATOM     12  O   UNL     1       0.202   1.776  -0.988  0.00  0.00    +0.000 OA
ATOM     13  N   UNL     1      -0.080   0.650   1.021  0.00  0.00    +0.000 N 
ATOM     14  C   ACE A   0       0.526   1.575   0.182  0.00  0.00    +0.000 C 
ATOM     15  H   UNL     1       0.208   0.604   1.994  0.00  0.00    +0.000 HD
BRANCH  14  16
ATOM     16  C   UNL     1       1.675   2.318   0.855  0.00  0.00    +0.000 C 
BRANCH  16  17
ATOM     17  S   UNL     1       0.944   3.765   1.702  0.00  0.00    +0.000 S 
ATOM     18  H   UNL     1       0.171   3.072   2.551  0.00  0.00    +0.000 HD
ENDBRANCH  16  17
BRANCH  16  19
ATOM     19  C   UNL     1       2.730   2.793  -0.153  0.00  0.00    +0.000 C 
BRANCH  19  20
ATOM     20  C   UNL     1       3.726   1.707  -0.492  0.00  0.00    +0.000 A 
ATOM     21  C   UNL     1       4.891   1.569   0.263  0.00  0.00    +0.000 A 
ATOM     22  C   UNL     1       3.479   0.841  -1.558  0.00  0.00    +0.000 A 
ATOM     23  C   UNL     1       5.810   0.567  -0.049  0.00  0.00    +0.000 A 
ATOM     24  C   UNL     1       4.398  -0.161  -1.869  0.00  0.00    +0.000 A 
ATOM     25  C   UNL     1       5.563  -0.298  -1.115  0.00  0.00    +0.000 A 
ENDBRANCH  19  20
ENDBRANCH  16  19
ENDBRANCH  14  16
ENDBRANCH   1  13
BRANCH   1  26
ATOM     26  CB  UNL     1      -1.221  -1.514   1.357  0.00  0.00    +0.000 C 
BRANCH  26  27
ATOM     27  CG  UNL     1      -0.224  -2.521   0.840  0.00  0.00    +0.000 A 
ATOM     28  CD1 UNL     1      -0.588  -3.404  -0.177  0.00  0.00    +0.000 A 
ATOM     29  CD2 UNL     1       1.062  -2.569   1.378  0.00  0.00    +0.000 A 
ATOM     30  CE1 UNL     1       0.334  -4.335  -0.655  0.00  0.00    +0.000 A 
ATOM     31  CE2 UNL     1       1.984  -3.500   0.899  0.00  0.00    +0.000 A 
ATOM     32  CZ  UNL     1       1.620  -4.383  -0.117  0.00  0.00    +0.000 A 
ENDBRANCH  26  27
ENDBRANCH   1  26
TORSDOF 11
