REMARK  Name = 
REMARK  14 active torsions:
REMARK  status: ('A' for Active; 'I' for Inactive)
REMARK    1  A    between atoms: C_2  and  O_3
REMARK    2  A    between atoms: C_2  and  C_4
REMARK    3  A    between atoms: N_6  and  C_7
REMARK    4  A    between atoms: C_10  and  C_11
REMARK    5  A    between atoms: C_11  and  C_12
REMARK    6  A    between atoms: C_12  and  N_13
REMARK    7  A    between atoms: C_14  and  CA_16
REMARK    8  A    between atoms: CA_16  and  C_17
REMARK    9  A    between atoms: CA_16  and  N_19
REMARK   10  A    between atoms: C_17  and  O_18
REMARK   11  A    between atoms: C_20  and  C_22
REMARK   12  A    between atoms: C_22  and  C_23
REMARK   13  A    between atoms: C_23  and  N_24
REMARK   14  A    between atoms: C_25  and  C_27
REMARK                            x       y       z     vdW  Elec       q    Type
REMARK                         _______ _______ _______ _____ _____    ______ ____
ROOT
ATOM      1  N   UNL     1       0.331  -2.970   0.036  0.00  0.00    +0.000 N 
ATOM      2  C   UNL     1       1.426  -2.077   0.285  0.00  0.00    +0.000 C 
ATOM      3  O   UNL     1       1.089  -0.885   0.569  0.00  0.00    +0.000 OA
ATOM      4  H   UNL     1       0.470  -3.766  -0.526  0.00  0.00    +0.000 HD
ENDROOT
BRANCH   1   5
ATOM      5  C   UNL     1      -0.980  -2.710   0.603  0.00  0.00    +0.000 C 
BRANCH   5   6
ATOM      6  C   UNL     1      -1.918  -2.067  -0.395  0.00  0.00    +0.000 C 
BRANCH   6  10
ATOM      7  C   UNL     1      -4.588   0.813   1.347  0.00  0.00    +0.000 A 
ATOM      8  C   UNL     1      -4.742  -0.552   1.538  0.00  0.00    +0.000 A 
ATOM      9  C   UNL     1      -3.720  -1.449   1.254  0.00  0.00    +0.000 A 
ATOM     10  C   UNL     1      -2.792  -1.073   0.291  0.00  0.00    +0.000 A 
ATOM     11  C   UNL     1      -2.513   0.283   0.229  0.00  0.00    +0.000 A 
ATOM     12  C   UNL     1      -3.367   1.208   0.815  0.00  0.00    +0.000 A 
BRANCH   7  15
ATOM     13  C   UNL     1      -6.649   1.214   0.137  0.00  0.00    +0.000 C 
ATOM     14  O   UNL     1      -6.717  -0.000  -0.140  0.00  0.00    +0.000 OA
ATOM     15  N   UNL     1      -5.757   1.618   1.157  0.00  0.00    +0.000 N 
ATOM     16  H   UNL     1      -5.932   2.414   1.709  0.00  0.00    +0.000 HD
BRANCH  13  18
ATOM     17  O   UNL     1      -8.433   1.821  -0.862  0.00  0.00    +0.000 OA
ATOM     18  C   UNL     1      -7.609   2.127  -0.496  0.00  0.00    +0.000 C 
BRANCH  18  19
ATOM     19  O   UNL     1      -7.178   3.451  -0.630  0.00  0.00    +0.000 OA
ATOM     20  H   UNL     1      -6.361   3.717  -0.256  0.00  0.00    +0.000 HD
ENDBRANCH  18  19
ENDBRANCH  13  18
ENDBRANCH   7  15
ENDBRANCH   6  10
ENDBRANCH   5   6
ENDBRANCH   1   5
BRANCH   2  21
ATOM     21  CA  UNL     1       2.315  -1.979  -1.098  0.00  0.00    +0.000 C 
BRANCH  21  22
ATOM     22  N   UNL     1       3.581  -1.411  -0.288  0.00  0.00    +0.000 N 
ATOM     23  C   UNL     1       3.478   0.010  -0.194  0.00  0.00    +0.000 C 
ATOM     24  O   UNL     1       2.938   0.675  -1.115  0.00  0.00    +0.000 OA
ATOM     25  H   UNL     1       4.311  -1.957   0.084  0.00  0.00    +0.000 HD
BRANCH  23  26
ATOM     26  C   UNL     1       4.364   0.711   0.752  0.00  0.00    +0.000 C 
BRANCH  26  27
ATOM     27  C   UNL     1       5.534  -0.159   1.194  0.00  0.00    +0.000 C 
BRANCH  27  28
ATOM     28  N   UNL     1       6.682   0.249   0.391  0.00  0.00    +0.000 N 
ATOM     29  C   UNL     1       6.932   1.648   0.267  0.00  0.00    +0.000 C 
ATOM     30  O   UNL     1       6.168   2.463   0.857  0.00  0.00    +0.000 OA
ATOM     31  H   UNL     1       7.261  -0.415  -0.049  0.00  0.00    +0.000 HD
BRANCH  29  32
ATOM     32  C   UNL     1       7.982   2.208  -0.618  0.00  0.00    +0.000 C 
ATOM     33 BR   UNL     1       7.341   3.892  -1.337  0.00  0.00    +0.000 Br
ENDBRANCH  29  32
ENDBRANCH  27  28
ENDBRANCH  26  27
ENDBRANCH  23  26
ENDBRANCH  21  22
BRANCH  21  34
ATOM     34  C   UNL     1       2.854  -3.556  -0.909  0.00  0.00    +0.000 C 
BRANCH  34  35
ATOM     35  O   UNL     1       3.947  -3.503  -1.788  0.00  0.00    +0.000 OA
ATOM     36  H   UNL     1       3.643  -3.222  -2.665  0.00  0.00    +0.000 HD
ENDBRANCH  34  35
ENDBRANCH  21  34
ENDBRANCH   2  21
TORSDOF 14
