REMARK  Name = 445026
REMARK  15 active torsions:
REMARK  status: ('A' for Active; 'I' for Inactive)
REMARK    1  A    between atoms: P_1  and  O_2
REMARK    2  A    between atoms: P_1  and  O_6
REMARK    3  A    between atoms: P_1  and  O_7
REMARK    4  A    between atoms: O_2  and  C_19
REMARK    5  A    between atoms: O_4  and  C_20
REMARK    6  A    between atoms: N_9  and  C_11
REMARK    7  A    between atoms: N_10  and  C_14
REMARK    8  A    between atoms: C_11  and  C_12
REMARK    9  A    between atoms: C_11  and  C_14
REMARK   10  A    between atoms: C_12  and  C_13
REMARK   11  A    between atoms: C_13  and  C_15
REMARK   12  A    between atoms: C_14  and  C_17
REMARK   13  A    between atoms: C_15  and  C_16
REMARK   14  A    between atoms: C_16  and  C_18
REMARK   15  A    between atoms: C_18  and  C_20
REMARK                            x       y       z     vdW  Elec       q    Type
REMARK                         _______ _______ _______ _____ _____    ______ ____
ROOT
ATOM      1  C   UNL     1      -1.006   1.861  -0.345  0.00  0.00    +0.000 C 
ENDROOT
BRANCH   1   3
ATOM      2  O   UNL     1      -2.930   0.002  -1.495  0.00  0.00    +0.000 OA
ATOM      3  N   UNL     1      -1.724   0.798   0.325  0.00  0.00    +0.000 N 
ATOM      4  C   UNL     1      -2.618  -0.033  -0.311  0.00  0.00    +0.000 C 
ATOM      5  H   UNL     1      -1.521   0.618   1.304  0.00  0.00    +0.000 HD
BRANCH   4   6
ATOM      6  O   UNL     1      -3.134  -0.929   0.575  0.00  0.00    +0.000 OA
BRANCH   6   7
ATOM      7  P   UNL     1      -4.219  -2.070   0.203  0.00  0.00    +0.000 P 
ATOM      8  O   UNL     1      -5.519  -1.550  -0.339  0.00  0.00    +0.000 OA
BRANCH   7   9
ATOM      9  O   UNL     1      -3.407  -3.064  -0.781  0.00  0.00    +0.000 OA
ATOM     10  H   UNL     1      -3.885  -3.808  -1.205  0.00  0.00    +0.000 HD
ENDBRANCH   7   9
BRANCH   7  11
ATOM     11  O   UNL     1      -4.340  -2.918   1.574  0.00  0.00    +0.000 OA
ATOM     12  H   UNL     1      -5.018  -3.624   1.637  0.00  0.00    +0.000 HD
ENDBRANCH   7  11
ENDBRANCH   6   7
ENDBRANCH   4   6
ENDBRANCH   1   3
BRANCH   1  13
ATOM     13  C   UNL     1      -0.770   3.064   0.598  0.00  0.00    +0.000 C 
ATOM     14  C   UNL     1      -2.076   3.569   1.222  0.00  0.00    +0.000 C 
BRANCH  13  15
ATOM     15  N   UNL     1      -0.143   4.171  -0.130  0.00  0.00    +0.000 NA
ATOM     16  H   UNL     1      -0.016   4.965   0.496  0.00  0.00    +0.000 HD
ATOM     17  H   UNL     1       0.792   3.902  -0.432  0.00  0.00    +0.000 HD
ENDBRANCH  13  15
ENDBRANCH   1  13
BRANCH   1  18
ATOM     18  C   UNL     1       0.262   1.305  -1.027  0.00  0.00    +0.000 C 
BRANCH  18  19
ATOM     19  C   UNL     1       1.391   0.782  -0.127  0.00  0.00    +0.000 C 
BRANCH  19  20
ATOM     20  C   UNL     1       2.591   0.208  -0.879  0.00  0.00    +0.000 C 
BRANCH  20  21
ATOM     21  C   UNL     1       3.715  -0.182   0.090  0.00  0.00    +0.000 C 
BRANCH  21  22
ATOM     22  C   UNL     1       4.918  -0.795  -0.627  0.00  0.00    +0.000 C 
BRANCH  22  24
ATOM     23  O   UNL     1       5.979  -1.167   1.537  0.00  0.00    +0.000 OA
ATOM     24  C   UNL     1       6.003  -1.249   0.318  0.00  0.00    +0.000 C 
BRANCH  24  25
ATOM     25  O   UNL     1       7.027  -1.804  -0.380  0.00  0.00    +0.000 OA
ATOM     26  H   UNL     1       7.743  -2.121   0.211  0.00  0.00    +0.000 HD
ENDBRANCH  24  25
ENDBRANCH  22  24
ENDBRANCH  21  22
ENDBRANCH  20  21
ENDBRANCH  19  20
ENDBRANCH  18  19
ENDBRANCH   1  18
TORSDOF 14
