REMARK  Name = 
REMARK  27 active torsions:
REMARK  status: ('A' for Active; 'I' for Inactive)
REMARK    1  A    between atoms: N_1  and  C_2
REMARK    2  A    between atoms: C_2  and  C_3
REMARK    3  A    between atoms: C_2  and  C_38
REMARK    4  A    between atoms: C_3  and  C_4
REMARK    5  A    between atoms: C_4  and  C_5
REMARK    6  A    between atoms: N_7  and  C_8
REMARK    7  A    between atoms: C_8  and  C_9
REMARK    8  A    between atoms: C_8  and  C_31
REMARK    9  A    between atoms: C_9  and  S_10
REMARK   10  A    between atoms: S_10  and  S_11
REMARK   11  A    between atoms: S_11  and  C_12
REMARK   12  A    between atoms: C_12  and  C_13
REMARK   13  A    between atoms: C_13  and  N_14
REMARK   14  A    between atoms: C_13  and  C_24
REMARK   15  A    between atoms: C_15  and  C_17
REMARK   16  A    between atoms: C_17  and  C_18
REMARK   17  A    between atoms: C_18  and  C_19
REMARK   18  A    between atoms: C_19  and  N_20
REMARK   19  A    between atoms: C_19  and  C_21
REMARK   20  A    between atoms: C_21  and  O_23
REMARK   21  A    between atoms: N_26  and  CA_27
REMARK   22  A    between atoms: CA_27  and  C_28
REMARK   23  A    between atoms: C_28  and  OXT_30
REMARK   24  A    between atoms: N_33  and  CA_34
REMARK   25  A    between atoms: CA_34  and  C_35
REMARK   26  A    between atoms: C_35  and  OXT_37
REMARK   27  A    between atoms: C_38  and  O_40
REMARK                            x       y       z     vdW  Elec       q    Type
REMARK                         _______ _______ _______ _____ _____    ______ ____
ROOT
ATOM      1  S   UNK A   1       0.752  -1.072   0.545  0.00  0.00    +0.000 S 
ENDROOT
BRANCH   1   2
ATOM      2  C   UNK A   1       1.535  -1.051  -1.075  0.00  0.00    +0.000 C 
BRANCH   2   3
ATOM      3  C   UNK A   1       3.051  -0.405  -0.818  0.00  0.00    +0.000 C 
BRANCH   3   6
ATOM      4  C   UNK A   1       4.625  -1.821   0.451  0.00  0.00    +0.000 C 
ATOM      5  O   UNK A   1       4.817  -2.629  -0.505  0.00  0.00    +0.000 OA
ATOM      6  N   UNK A   1       3.283  -1.312   0.475  0.00  0.00    +0.000 N 
ATOM      7  H   UNK A   1       2.615  -1.493   1.175  0.00  0.00    +0.000 HD
BRANCH   4   8
ATOM      8  C   UNK A   1       5.503  -1.784   1.661  0.00  0.00    +0.000 C 
BRANCH   8   9
ATOM      9  C   UNK A   1       6.495  -0.641   1.456  0.00  0.00    +0.000 C 
BRANCH   9  10
ATOM     10  C   UNK A   1       7.510  -1.298   0.307  0.00  0.00    +0.000 C 
BRANCH  10  11
ATOM     11  N   UNK A   1       8.669  -0.246   0.636  0.00  0.00    +0.000 NA
ATOM     12  H   UNK A   1       9.242  -0.601   1.402  0.00  0.00    +0.000 HD
ATOM     13  H   UNK A   1       8.252   0.644   0.908  0.00  0.00    +0.000 HD
ENDBRANCH  10  11
BRANCH  10  14
ATOM     14  C   UNK A   1       6.908  -0.359  -0.887  0.00  0.00    +0.000 C 
ATOM     15  O   UNK A   1       7.253  -0.811  -1.996  0.00  0.00    +0.000 OA
BRANCH  14  16
ATOM     16  O   UNK A   1       6.705   0.957  -0.581  0.00  0.00    +0.000 OA
ATOM     17  H   UNK A   1       6.445   1.202   0.285  0.00  0.00    +0.000 HD
ENDBRANCH  14  16
ENDBRANCH  10  14
ENDBRANCH   9  10
ENDBRANCH   8   9
ENDBRANCH   4   8
ENDBRANCH   3   6
BRANCH   3  18
ATOM     18  C   UNK A   1       2.451   0.848   0.051  0.00  0.00    +0.000 C 
ATOM     19  O   UNK A   1       2.363   1.807  -0.781  0.00  0.00    +0.000 OA
ATOM     20  N   GLY A   2       3.187   1.169   1.213  0.00  0.00    +0.000 N 
ATOM     21  H   GLY A   2       3.611   0.419   1.689  0.00  0.00    +0.000 HD
BRANCH  20  22
ATOM     22  CA  GLY A   2       3.380   2.480   1.772  0.00  0.00    +0.000 C 
BRANCH  22  23
ATOM     23  C   GLY A   2       4.499   3.116   1.032  0.00  0.00    +0.000 C 
ATOM     24  O   GLY A   2       5.703   2.887   1.265  0.00  0.00    +0.000 OA
BRANCH  23  25
ATOM     25  OXT GLY A   2       4.148   4.114   0.118  0.00  0.00    +0.000 OA
ATOM     26  HXT GLY A   2       3.245   4.289  -0.060  0.00  0.00    +0.000 HD
ENDBRANCH  23  25
ENDBRANCH  22  23
ENDBRANCH  20  22
ENDBRANCH   3  18
ENDBRANCH   2   3
ENDBRANCH   1   2
BRANCH   1  27
ATOM     27  S   UNK A   1      -0.330   0.782   0.512  0.00  0.00    +0.000 S 
BRANCH  27  28
ATOM     28  C   UNK A   1      -1.952   0.250   0.979  0.00  0.00    +0.000 C 
BRANCH  28  29
ATOM     29  C   UNK A   1      -2.455  -0.877  -0.142  0.00  0.00    +0.000 C 
BRANCH  29  30
ATOM     30  N   UNK A   1      -3.565   0.124  -0.702  0.00  0.00    +0.000 N 
ATOM     31  C   UNK A   1      -4.625  -0.469  -1.392  0.00  0.00    +0.000 C 
ATOM     32  O   UNK A   1      -4.680  -1.676  -1.683  0.00  0.00    +0.000 OA
ATOM     33  H   UNK A   1      -3.507   1.098  -0.569  0.00  0.00    +0.000 HD
BRANCH  31  34
ATOM     34  C   UNK A   1      -5.769   0.419  -1.771  0.00  0.00    +0.000 C 
BRANCH  34  35
ATOM     35  C   UNK A   1      -5.471   1.869  -1.430  0.00  0.00    +0.000 C 
BRANCH  35  36
ATOM     36  C   UNK A   1      -6.090   2.057   0.106  0.00  0.00    +0.000 C 
BRANCH  36  37
ATOM     37  N   UNK A   1      -7.534   2.406  -0.480  0.00  0.00    +0.000 NA
ATOM     38  H   UNK A   1      -7.438   3.079  -1.241  0.00  0.00    +0.000 HD
ATOM     39  H   UNK A   1      -8.112   2.808   0.258  0.00  0.00    +0.000 HD
ENDBRANCH  36  37
BRANCH  36  40
ATOM     40  C   UNK A   1      -5.667   3.637   0.141  0.00  0.00    +0.000 C 
ATOM     41  O   UNK A   1      -4.428   3.749   0.331  0.00  0.00    +0.000 OA
BRANCH  40  42
ATOM     42  O   UNK A   1      -6.514   4.394   0.959  0.00  0.00    +0.000 OA
ATOM     43  H   UNK A   1      -7.443   4.339   0.849  0.00  0.00    +0.000 HD
ENDBRANCH  40  42
ENDBRANCH  36  40
ENDBRANCH  35  36
ENDBRANCH  34  35
ENDBRANCH  31  34
ENDBRANCH  29  30
BRANCH  29  44
ATOM     44  C   UNK A   1      -3.496  -1.573   0.909  0.00  0.00    +0.000 C 
ATOM     45  O   UNK A   1      -4.176  -0.823   1.594  0.00  0.00    +0.000 OA
ATOM     46  N   GLY A   2      -3.483  -2.978   0.901  0.00  0.00    +0.000 N 
ATOM     47  H   GLY A   2      -2.860  -3.487   0.334  0.00  0.00    +0.000 HD
BRANCH  46  48
ATOM     48  CA  GLY A   2      -4.442  -3.644   1.776  0.00  0.00    +0.000 C 
BRANCH  48  49
ATOM     49  C   GLY A   2      -5.774  -3.761   1.107  0.00  0.00    +0.000 C 
ATOM     50  O   GLY A   2      -6.059  -2.825   0.302  0.00  0.00    +0.000 OA
BRANCH  49  51
ATOM     51  OXT GLY A   2      -6.327  -5.011   0.815  0.00  0.00    +0.000 OA
ATOM     52  HXT GLY A   2      -6.152  -5.742   1.374  0.00  0.00    +0.000 HD
ENDBRANCH  49  51
ENDBRANCH  48  49
ENDBRANCH  46  48
ENDBRANCH  29  44
ENDBRANCH  28  29
ENDBRANCH  27  28
ENDBRANCH   1  27
TORSDOF 27
