REMARK  Name = 
REMARK  18 active torsions:
REMARK  status: ('A' for Active; 'I' for Inactive)
REMARK    1  A    between atoms: C_1  and  C_2
REMARK    2  A    between atoms: C_2  and  C_3
REMARK    3  A    between atoms: C_3  and  C_4
REMARK    4  A    between atoms: C_4  and  C_5
REMARK    5  A    between atoms: C_5  and  C_6
REMARK    6  A    between atoms: C_6  and  C_7
REMARK    7  A    between atoms: C_7  and  C_8
REMARK    8  A    between atoms: C_8  and  C_9
REMARK    9  A    between atoms: C_9  and  C_10
REMARK   10  A    between atoms: C_10  and  C_11
REMARK   11  A    between atoms: C_11  and  C_12
REMARK   12  A    between atoms: C_12  and  C_13
REMARK   13  A    between atoms: C_13  and  C_14
REMARK   14  A    between atoms: C_14  and  C_15
REMARK   15  A    between atoms: C_15  and  C_16
REMARK   16  A    between atoms: N_18  and  C_19
REMARK   17  A    between atoms: C_19  and  C_20
REMARK   18  A    between atoms: C_20  and  O_22
REMARK                            x       y       z     vdW  Elec       q    Type
REMARK                         _______ _______ _______ _____ _____    ______ ____
ROOT
ATOM      1  C   UNL     1       1.054  -0.498  -0.372  0.00  0.00    +0.000 C 
ENDROOT
BRANCH   1   2
ATOM      2  C   UNL     1      -0.358  -0.347   0.137  0.00  0.00    +0.000 C 
BRANCH   2   3
ATOM      3  C   UNL     1      -1.210  -1.498  -0.380  0.00  0.00    +0.000 C 
BRANCH   3   4
ATOM      4  C   UNL     1      -1.823  -2.160   0.822  0.00  0.00    +0.000 C 
BRANCH   4   5
ATOM      5  C   UNL     1      -3.293  -1.862   0.948  0.00  0.00    +0.000 C 
BRANCH   5   6
ATOM      6  C   UNL     1      -3.947  -1.565  -0.381  0.00  0.00    +0.000 C 
BRANCH   6   7
ATOM      7  C   UNL     1      -4.966  -0.461  -0.125  0.00  0.00    +0.000 C 
BRANCH   7   8
ATOM      8  C   UNL     1      -5.987  -0.392  -1.236  0.00  0.00    +0.000 C 
BRANCH   8   9
ATOM      9  C   UNL     1      -6.471   1.050  -1.331  0.00  0.00    +0.000 C 
BRANCH   9  10
ATOM     10  C   UNL     1      -7.027   1.458   0.010  0.00  0.00    +0.000 C 
BRANCH  10  12
ATOM     11  C   UNL     1      -7.271   3.938  -0.091  0.00  0.00    +0.000 C 
ATOM     12  C   UNL     1      -6.484   2.783   0.470  0.00  0.00    +0.000 C 
ENDBRANCH  10  12
ENDBRANCH   9  10
ENDBRANCH   8   9
ENDBRANCH   7   8
ENDBRANCH   6   7
ENDBRANCH   5   6
ENDBRANCH   4   5
ENDBRANCH   3   4
ENDBRANCH   2   3
ENDBRANCH   1   2
BRANCH   1  13
ATOM     13  C   UNL     1       2.012  -0.578   0.812  0.00  0.00    +0.000 C 
BRANCH  13  14
ATOM     14  C   UNL     1       2.504  -1.999   0.865  0.00  0.00    +0.000 C 
BRANCH  14  15
ATOM     15  C   UNL     1       3.989  -2.126   0.680  0.00  0.00    +0.000 C 
BRANCH  15  16
ATOM     16  C   UNL     1       4.552  -1.070  -0.208  0.00  0.00    +0.000 C 
ATOM     17  O   UNL     1       4.417  -1.115  -1.466  0.00  0.00    +0.000 OA
ATOM     18  N   UNL     1       5.735  -0.408   0.255  0.00  0.00    +0.000 N 
ATOM     19  H   UNL     1       5.963  -0.459   1.211  0.00  0.00    +0.000 HD
BRANCH  18  20
ATOM     20  C   UNL     1       6.609   0.336  -0.631  0.00  0.00    +0.000 C 
BRANCH  20  21
ATOM     21  C   UNL     1       6.169   1.765  -0.641  0.00  0.00    +0.000 C 
ATOM     22  O   UNL     1       6.968   2.695  -0.342  0.00  0.00    +0.000 OA
BRANCH  21  23
ATOM     23  O   UNL     1       4.827   2.053  -0.905  0.00  0.00    +0.000 OA
ATOM     24  H   UNL     1       4.235   1.362  -1.128  0.00  0.00    +0.000 HD
ENDBRANCH  21  23
ENDBRANCH  20  21
ENDBRANCH  18  20
ENDBRANCH  15  16
ENDBRANCH  14  15
ENDBRANCH  13  14
ENDBRANCH   1  13
TORSDOF 17
