REMARK  Name = 
REMARK  26 active torsions:
REMARK  status: ('A' for Active; 'I' for Inactive)
REMARK    1  A    between atoms: C_1  and  C_2
REMARK    2  A    between atoms: C_2  and  N_3
REMARK    3  A    between atoms: C_2  and  B_39
REMARK    4  A    between atoms: C_4  and  C_6
REMARK    5  A    between atoms: C_6  and  C_7
REMARK    6  A    between atoms: C_6  and  N_22
REMARK    7  A    between atoms: C_7  and  C_8
REMARK    8  A    between atoms: C_8  and  C_9
REMARK    9  A    between atoms: C_9  and  C_10
REMARK   10  A    between atoms: C_10  and  N_11
REMARK   11  A    between atoms: C_12  and  O_14
REMARK   12  A    between atoms: O_14  and  C_15
REMARK   13  A    between atoms: C_15  and  C_16
REMARK   14  A    between atoms: C_23  and  C_25
REMARK   15  A    between atoms: C_25  and  C_26
REMARK   16  A    between atoms: C_26  and  C_27
REMARK   17  A    between atoms: C_27  and  N_28
REMARK   18  A    between atoms: C_27  and  C_36
REMARK   19  A    between atoms: C_29  and  O_31
REMARK   20  A    between atoms: O_31  and  C_32
REMARK   21  A    between atoms: C_32  and  C_33
REMARK   22  A    between atoms: C_32  and  C_34
REMARK   23  A    between atoms: C_32  and  C_35
REMARK   24  A    between atoms: C_36  and  O_38
REMARK   25  A    between atoms: B_39  and  O_40
REMARK   26  A    between atoms: B_39  and  O_41
REMARK                            x       y       z     vdW  Elec       q    Type
REMARK                         _______ _______ _______ _____ _____    ______ ____
ROOT
ATOM      1  C   UNK A   1      -0.605  -1.272  -0.480  0.00  0.00    +0.000 C 
ENDROOT
BRANCH   1   3
ATOM      2  N   UNK A   1      -0.040  -3.637  -1.002  0.00  0.00    +0.000 N 
ATOM      3  C   UNK A   1      -0.489  -2.817   0.051  0.00  0.00    +0.000 C 
ATOM      4  O   UNK A   1      -1.507  -3.259   0.600  0.00  0.00    +0.000 OA
ATOM      5  H   UNK A   1       0.016  -3.324  -1.934  0.00  0.00    +0.000 HD
BRANCH   2   7
ATOM      6  C   UNK A   1      -0.976  -5.313   0.388  0.00  0.00    +0.000 C 
ATOM      7  C   UNK A   1       0.365  -5.105  -0.566  0.00  0.00    +0.000 C 
BRANCH   7   8
ATOM      8  B   UNK A   1       1.404  -4.536   0.697  0.00  0.00    +0.000 B 
BRANCH   8   9
ATOM      9  O   UNK A   1       0.976  -4.584   2.040  0.00  0.00    +0.000 OA
ATOM     10  H   UNK A   1       0.009  -4.660   2.069  0.00  0.00    +0.000 HD
ENDBRANCH   8   9
BRANCH   8  11
ATOM     11  O   UNK A   1       2.797  -4.422   0.235  0.00  0.00    +0.000 OA
ATOM     12  H   UNK A   1       2.816  -4.410  -0.735  0.00  0.00    +0.000 HD
ENDBRANCH   8  11
ENDBRANCH   7   8
ENDBRANCH   2   7
ENDBRANCH   1   3
BRANCH   1  13
ATOM     13  N   UNK A   1      -0.710  -0.731   1.029  0.00  0.00    +0.000 N 
ATOM     14  C   UNK A   1      -1.679   0.286   1.169  0.00  0.00    +0.000 C 
ATOM     15  O   UNK A   1      -1.493   1.297   0.425  0.00  0.00    +0.000 OA
ATOM     16  H   UNK A   1      -0.162  -1.072   1.773  0.00  0.00    +0.000 HD
BRANCH  14  17
ATOM     17  C   UNK A   1      -2.898   0.219   1.994  0.00  0.00    +0.000 C 
BRANCH  17  18
ATOM     18  C   UNK A   1      -4.166   0.239   1.179  0.00  0.00    +0.000 C 
BRANCH  18  19
ATOM     19  C   UNK A   1      -3.634   0.264  -0.411  0.00  0.00    +0.000 C 
BRANCH  19  20
ATOM     20  N   UNK A   1      -4.283   1.703  -0.687  0.00  0.00    +0.000 N 
ATOM     21  C   UNK A   0      -5.589   1.893  -0.242  0.00  0.00    +0.000 C 
ATOM     22  O   UNK A   0      -6.009   1.225   0.743  0.00  0.00    +0.000 OA
ATOM     23  H   UNK A   1      -3.784   2.417  -1.147  0.00  0.00    +0.000 HD
BRANCH  21  24
ATOM     24  O   UNK A   0      -6.241   3.081  -0.586  0.00  0.00    +0.000 OA
BRANCH  24  25
ATOM     25  C   UNK A   0      -7.394   3.438   0.160  0.00  0.00    +0.000 C 
ATOM     26  C   UNK A   0      -8.439   4.129  -0.662  0.00  0.00    +0.000 C 
ATOM     27  C   UNK A   0      -6.873   4.311   1.296  0.00  0.00    +0.000 C 
ATOM     28  C   UNK A   0      -7.967   2.175   0.787  0.00  0.00    +0.000 C 
ENDBRANCH  24  25
ENDBRANCH  21  24
ENDBRANCH  19  20
BRANCH  19  29
ATOM     29  C   UNK A   1      -4.976  -0.533  -0.936  0.00  0.00    +0.000 C 
ATOM     30  O   UNK A   1      -5.083  -1.657  -0.382  0.00  0.00    +0.000 OA
BRANCH  29  31
ATOM     31  O   UNK A   1      -4.972  -0.486  -2.336  0.00  0.00    +0.000 OA
ATOM     32  H   UNK A   1      -4.894   0.337  -2.777  0.00  0.00    +0.000 HD
ENDBRANCH  29  31
ENDBRANCH  19  29
ENDBRANCH  18  19
ENDBRANCH  17  18
ENDBRANCH  14  17
ENDBRANCH   1  13
BRANCH   1  33
ATOM     33  C   UNK A   1       1.067  -1.127  -0.484  0.00  0.00    +0.000 C 
BRANCH  33  34
ATOM     34  C   UNK A   1       1.331   0.262  -0.015  0.00  0.00    +0.000 C 
BRANCH  34  35
ATOM     35  C   UNK A   1       2.087   0.176   1.307  0.00  0.00    +0.000 C 
BRANCH  35  36
ATOM     36  C   UNK A   1       2.872  -1.128   1.397  0.00  0.00    +0.000 C 
BRANCH  36  37
ATOM     37  N   UNK A   1       3.978  -1.146   0.459  0.00  0.00    +0.000 N 
ATOM     38  C   UNK A   1       4.426   0.084  -0.126  0.00  0.00    +0.000 C 
ATOM     39  O   UNK A   1       4.215   1.130   0.528  0.00  0.00    +0.000 OA
ATOM     40  H   UNK A   1       4.418  -1.995   0.226  0.00  0.00    +0.000 HD
BRANCH  38  41
ATOM     41  O   UNK A   1       5.473   0.048  -1.043  0.00  0.00    +0.000 OA
BRANCH  41  42
ATOM     42  C   UNK A   1       6.197   1.207  -1.431  0.00  0.00    +0.000 C 
BRANCH  42  43
ATOM     43  C   UNK A   1       7.163   1.621  -0.370  0.00  0.00    +0.000 A 
ATOM     44  C   UNK A   1       6.845   2.731   0.397  0.00  0.00    +0.000 A 
ATOM     45  C   UNK A   1       7.787   3.507   1.031  0.00  0.00    +0.000 A 
ATOM     46  C   UNK A   1       9.099   3.294   0.708  0.00  0.00    +0.000 A 
ATOM     47  C   UNK A   1       9.453   2.118   0.058  0.00  0.00    +0.000 A 
ATOM     48  C   UNK A   1       8.487   1.317  -0.522  0.00  0.00    +0.000 A 
ENDBRANCH  42  43
ENDBRANCH  41  42
ENDBRANCH  38  41
ENDBRANCH  36  37
ENDBRANCH  35  36
ENDBRANCH  34  35
ENDBRANCH  33  34
ENDBRANCH   1  33
TORSDOF 22
