REMARK  Name = 
REMARK  29 active torsions:
REMARK  status: ('A' for Active; 'I' for Inactive)
REMARK    1  A    between atoms: CD1_1  and  CG_2
REMARK    2  A    between atoms: CG_2  and  CD2_3
REMARK    3  A    between atoms: CG_2  and  CB_4
REMARK    4  A    between atoms: CB_4  and  CA_5
REMARK    5  A    between atoms: CA_5  and  N_6
REMARK    6  A    between atoms: CA_5  and  C_22
REMARK    7  A    between atoms: C_7  and  CA_9
REMARK    8  A    between atoms: CA_9  and  N_10
REMARK    9  A    between atoms: CA_9  and  CB_19
REMARK   10  A    between atoms: C_11  and  CA_13
REMARK   11  A    between atoms: CA_13  and  N_14
REMARK   12  A    between atoms: C_15  and  CA_17
REMARK   13  A    between atoms: CA_17  and  N_18
REMARK   14  A    between atoms: CB_19  and  CG1_20
REMARK   15  A    between atoms: CB_19  and  CG2_21
REMARK   16  A    between atoms: N_24  and  CA_25
REMARK   17  A    between atoms: CA_25  and  C_26
REMARK   18  A    between atoms: CA_25  and  CB_49
REMARK   19  A    between atoms: N_28  and  CA_29
REMARK   20  A    between atoms: CA_29  and  CB_30
REMARK   21  A    between atoms: CA_29  and  C_35
REMARK   22  A    between atoms: CB_30  and  CG_31
REMARK   23  A    between atoms: CG_31  and  CD_32
REMARK   24  A    between atoms: CA_41  and  C_42
REMARK   25  A    between atoms: N_44  and  CA_45
REMARK   26  A    between atoms: CA_45  and  C_46
REMARK   27  A    between atoms: C_46  and  OXT_48
REMARK   28  A    between atoms: CB_49  and  CG1_50
REMARK   29  A    between atoms: CB_49  and  CG2_51
REMARK                            x       y       z     vdW  Elec       q    Type
REMARK                         _______ _______ _______ _____ _____    ______ ____
ROOT
ATOM      1  CA  VAL A   5      -1.548   0.980   1.381  0.00  0.00    +0.000 C 
ENDROOT
BRANCH   1   4
ATOM      2  C   LEU A   4       0.676  -0.401   1.277  0.00  0.00    +0.000 C 
ATOM      3  O   LEU A   4       0.104  -1.254   0.685  0.00  0.00    +0.000 OA
ATOM      4  N   VAL A   5      -0.041   0.684   1.689  0.00  0.00    +0.000 N 
ATOM      5  H   VAL A   5       0.438   1.349   2.235  0.00  0.00    +0.000 HD
BRANCH   2   6
ATOM      6  CA  LEU A   4       2.105   0.190   0.792  0.00  0.00    +0.000 C 
BRANCH   6   7
ATOM      7  N   LEU A   4       3.006  -0.829   1.596  0.00  0.00    +0.000 N 
ATOM      8  C   VAL A   3       4.128  -0.239   2.280  0.00  0.00    +0.000 C 
ATOM      9  O   VAL A   3       3.744   0.658   3.095  0.00  0.00    +0.000 OA
ATOM     10  H   LEU A   4       2.816  -1.795   1.626  0.00  0.00    +0.000 HD
BRANCH   8  11
ATOM     11  CA  VAL A   3       5.357   0.231   1.335  0.00  0.00    +0.000 C 
BRANCH  11  12
ATOM     12  N   VAL A   3       6.316   0.606   2.532  0.00  0.00    +0.000 N 
ATOM     13  C   GLY A   2       7.671   0.565   2.151  0.00  0.00    +0.000 C 
ATOM     14  O   GLY A   2       8.039  -0.597   1.792  0.00  0.00    +0.000 OA
ATOM     15  H   VAL A   3       6.004   0.840   3.436  0.00  0.00    +0.000 HD
BRANCH  13  16
ATOM     16  CA  GLY A   2       8.523   1.689   1.677  0.00  0.00    +0.000 C 
BRANCH  16  17
ATOM     17  N   GLY A   2       9.704   1.233   1.015  0.00  0.00    +0.000 N 
ATOM     18  C   GLY A   1       9.720   0.232  -0.006  0.00  0.00    +0.000 C 
ATOM     19  O   GLY A   1       8.784   0.318  -0.822  0.00  0.00    +0.000 OA
ATOM     20  H   GLY A   2      10.563   1.634   1.279  0.00  0.00    +0.000 HD
BRANCH  18  21
ATOM     21  CA  GLY A   1      10.745  -0.843   0.016  0.00  0.00    +0.000 C 
BRANCH  21  22
ATOM     22  N   GLY A   1      11.933  -0.355  -0.631  0.00  0.00    +0.000 NA
ATOM     23  H1  GLY A   1      11.714  -0.095  -1.593  0.00  0.00    +0.000 HD
ATOM     24  H2  GLY A   1      12.645  -1.085  -0.630  0.00  0.00    +0.000 HD
ENDBRANCH  21  22
ENDBRANCH  18  21
ENDBRANCH  16  17
ENDBRANCH  13  16
ENDBRANCH  11  12
BRANCH  11  25
ATOM     25  CB  VAL A   3       5.992  -1.268   1.150  0.00  0.00    +0.000 C 
ATOM     26  CG1 VAL A   3       5.401  -2.244   2.003  0.00  0.00    +0.000 C 
ATOM     27  CG2 VAL A   3       5.967  -1.505  -0.329  0.00  0.00    +0.000 C 
ENDBRANCH  11  25
ENDBRANCH   8  11
ENDBRANCH   6   7
BRANCH   6  28
ATOM     28  CB  LEU A   4       2.177  -0.655  -0.626  0.00  0.00    +0.000 C 
BRANCH  28  30
ATOM     29  CD1 LEU A   4       2.393  -2.137   0.009  0.00  0.00    +0.000 C 
ATOM     30  CG  LEU A   4       2.171  -2.084  -0.296  0.00  0.00    +0.000 C 
ATOM     31  CD2 LEU A   4       2.824  -3.014  -1.250  0.00  0.00    +0.000 C 
ENDBRANCH  28  30
ENDBRANCH   6  28
ENDBRANCH   2   6
ENDBRANCH   1   4
BRANCH   1  32
ATOM     32  C   VAL A   5      -1.717   0.113   0.013  0.00  0.00    +0.000 C 
ATOM     33  O   VAL A   5      -2.561  -0.779   0.372  0.00  0.00    +0.000 OA
ATOM     34  N   GLN A   6      -2.039   0.731  -1.148  0.00  0.00    +0.000 N 
ATOM     35  H   GLN A   6      -1.498   1.518  -1.388  0.00  0.00    +0.000 HD
BRANCH  34  36
ATOM     36  CA  GLN A   6      -3.174   0.334  -2.152  0.00  0.00    +0.000 C 
BRANCH  36  37
ATOM     37  C   GLN A   6      -4.361   1.026  -1.304  0.00  0.00    +0.000 C 
ATOM     38  O   GLN A   6      -4.150   2.129  -0.799  0.00  0.00    +0.000 OA
ATOM     39  N   PRO A   7      -5.490   1.106  -2.180  0.00  0.00    +0.000 N 
ATOM     40  CD  PRO A   7      -5.630   1.875  -3.404  0.00  0.00    +0.000 C 
ATOM     41  CG  PRO A   7      -6.955   1.364  -3.931  0.00  0.00    +0.000 C 
ATOM     42  CB  PRO A   7      -7.532   0.461  -2.847  0.00  0.00    +0.000 C 
ATOM     43  CA  PRO A   7      -6.931   1.343  -1.597  0.00  0.00    +0.000 C 
BRANCH  43  44
ATOM     44  C   PRO A   7      -6.821   0.092  -0.583  0.00  0.00    +0.000 C 
ATOM     45  O   PRO A   7      -7.672  -0.796  -0.656  0.00  0.00    +0.000 OA
ATOM     46  N   GLY A   8      -6.705   0.673   0.730  0.00  0.00    +0.000 N 
ATOM     47  H   GLY A   8      -6.459   1.623   0.806  0.00  0.00    +0.000 HD
BRANCH  46  48
ATOM     48  CA  GLY A   8      -6.932  -0.079   1.935  0.00  0.00    +0.000 C 
BRANCH  48  49
ATOM     49  C   GLY A   8      -8.169   0.424   2.606  0.00  0.00    +0.000 C 
ATOM     50  O   GLY A   8      -8.133   0.461   3.872  0.00  0.00    +0.000 OA
BRANCH  49  51
ATOM     51  OXT GLY A   8      -9.387   0.488   1.953  0.00  0.00    +0.000 OA
ATOM     52  HXT GLY A   8      -9.419   0.461   1.017  0.00  0.00    +0.000 HD
ENDBRANCH  49  51
ENDBRANCH  48  49
ENDBRANCH  46  48
ENDBRANCH  43  44
ENDBRANCH  36  37
BRANCH  36  53
ATOM     53  CB  GLN A   6      -3.473  -1.140  -1.477  0.00  0.00    +0.000 C 
BRANCH  53  54
ATOM     54  CG  GLN A   6      -3.048  -2.160  -2.485  0.00  0.00    +0.000 C 
BRANCH  54  55
ATOM     55  CD  GLN A   6      -4.136  -2.286  -3.513  0.00  0.00    +0.000 C 
ATOM     56  NE2 GLN A   6      -3.624  -2.381  -4.848  0.00  0.00    +0.000 N 
ATOM     57  OE1 GLN A   6      -5.127  -2.990  -3.145  0.00  0.00    +0.000 OA
ATOM     58 HE21 GLN A   6      -2.855  -1.830  -5.121  0.00  0.00    +0.000 HD
ATOM     59 HE22 GLN A   6      -4.042  -2.996  -5.493  0.00  0.00    +0.000 HD
ENDBRANCH  54  55
ENDBRANCH  53  54
ENDBRANCH  36  53
ENDBRANCH  34  36
ENDBRANCH   1  32
BRANCH   1  60
ATOM     60  CB  VAL A   5      -1.144   2.406   0.656  0.00  0.00    +0.000 C 
ATOM     61  CG1 VAL A   5      -0.876   3.379   1.742  0.00  0.00    +0.000 C 
ATOM     62  CG2 VAL A   5      -0.107   2.220  -0.325  0.00  0.00    +0.000 C 
ENDBRANCH   1  60
TORSDOF 23
