REMARK  Name = 
REMARK  15 active torsions:
REMARK  status: ('A' for Active; 'I' for Inactive)
REMARK    1  A    between atoms: C_1  and  C_2
REMARK    2  A    between atoms: N_4  and  C_5
REMARK    3  A    between atoms: C_5  and  C_6
REMARK    4  A    between atoms: C_5  and  C_13
REMARK    5  A    between atoms: C_6  and  C_7
REMARK    6  A    between atoms: C_19  and  C_20
REMARK    7  A    between atoms: N_22  and  C_23
REMARK    8  A    between atoms: C_23  and  C_24
REMARK    9  A    between atoms: C_23  and  B_29
REMARK   10  A    between atoms: C_24  and  C_25
REMARK   11  A    between atoms: C_25  and  C_26
REMARK   12  A    between atoms: C_26  and  C_27
REMARK   13  A    between atoms: C_27  and  N_28
REMARK   14  A    between atoms: B_29  and  O_30
REMARK   15  A    between atoms: B_29  and  O_31
REMARK                            x       y       z     vdW  Elec       q    Type
REMARK                         _______ _______ _______ _____ _____    ______ ____
ROOT
ATOM      1  C   UNL     1      -1.272  -1.440   0.312  0.00  0.00    +0.000 C 
ATOM      2  O   UNL     1      -1.312  -2.352   1.158  0.00  0.00    +0.000 OA
ATOM      3  N   UNL     1      -0.185  -0.892  -0.356  0.00  0.00    +0.000 N 
ATOM      4  C   UNL     1       1.072  -1.599  -0.095  0.00  0.00    +0.000 C 
ATOM      5  C   UNL     1       1.296  -1.200   1.344  0.00  0.00    +0.000 C 
ATOM      6  C   UNL     1       0.434  -0.021   1.662  0.00  0.00    +0.000 C 
ATOM      7  C   UNL     1       0.172   0.584   0.137  0.00  0.00    +0.000 C 
ENDROOT
BRANCH   7   8
ATOM      8  C   UNL     1       1.767   0.542  -0.200  0.00  0.00    +0.000 C 
ATOM      9  O   UNL     1       2.441   1.199   0.656  0.00  0.00    +0.000 OA
ATOM     10  N   UNL     1       2.151   0.567  -1.554  0.00  0.00    +0.000 N 
ATOM     11  H   UNL     1       1.622   0.180  -2.289  0.00  0.00    +0.000 HD
BRANCH  10  12
ATOM     12  C   UNL     1       3.539   1.295  -1.742  0.00  0.00    +0.000 C 
BRANCH  12  13
ATOM     13  C   UNL     1       4.332   0.183  -0.833  0.00  0.00    +0.000 C 
BRANCH  13  14
ATOM     14  C   UNL     1       5.698   0.766  -0.580  0.00  0.00    +0.000 C 
BRANCH  14  15
ATOM     15  C   UNL     1       6.529  -0.234   0.136  0.00  0.00    +0.000 C 
BRANCH  15  16
ATOM     16  C   UNL     1       6.176  -0.483   1.560  0.00  0.00    +0.000 C 
BRANCH  16  17
ATOM     17  N   UNL     1       7.338  -0.672   2.426  0.00  0.00    +0.000 NA
ATOM     18  H   UNL     1       7.859  -1.495   2.122  0.00  0.00    +0.000 HD
ATOM     19  H   UNL     1       7.026  -0.804   3.389  0.00  0.00    +0.000 HD
ENDBRANCH  16  17
ENDBRANCH  15  16
ENDBRANCH  14  15
ENDBRANCH  13  14
ENDBRANCH  12  13
BRANCH  12  20
ATOM     20  B   UNL     1       3.914   0.498  -3.214  0.00  0.00    +0.000 B 
BRANCH  20  21
ATOM     21  O   UNL     1       3.884   1.405  -4.374  0.00  0.00    +0.000 OA
ATOM     22  H   UNL     1       4.075   2.310  -4.082  0.00  0.00    +0.000 HD
ENDBRANCH  20  21
BRANCH  20  23
ATOM     23  O   UNL     1       3.674  -0.913  -3.294  0.00  0.00    +0.000 OA
ATOM     24  H   UNL     1       3.744  -1.304  -2.410  0.00  0.00    +0.000 HD
ENDBRANCH  20  23
ENDBRANCH  12  20
ENDBRANCH  10  12
ENDBRANCH   7   8
BRANCH   1  25
ATOM     25  C   UNL     1      -2.806  -1.026   0.015  0.00  0.00    +0.000 C 
BRANCH  25  29
ATOM     26  C   UNL     1      -4.071   0.863  -2.835  0.00  0.00    +0.000 C 
ATOM     27  C   UNL     1      -3.319  -0.115  -2.164  0.00  0.00    +0.000 C 
ATOM     28  O   UNL     1      -3.367  -1.275  -2.676  0.00  0.00    +0.000 OA
ATOM     29  N   UNL     1      -2.453   0.114  -1.042  0.00  0.00    +0.000 N 
ATOM     30  H   UNL     1      -1.782   0.827  -0.946  0.00  0.00    +0.000 HD
ENDBRANCH  25  29
BRANCH  25  31
ATOM     31  C   UNL     1      -2.826   0.059   1.274  0.00  0.00    +0.000 C 
BRANCH  31  32
ATOM     32  C   UNL     1      -4.228   0.052   1.775  0.00  0.00    +0.000 A 
ATOM     33  C   UNL     1      -4.820   1.287   2.030  0.00  0.00    +0.000 A 
ATOM     34  C   UNL     1      -6.149   1.366   2.436  0.00  0.00    +0.000 A 
ATOM     35  C   UNL     1      -6.829   0.154   2.487  0.00  0.00    +0.000 A 
ATOM     36  C   UNL     1      -6.066  -0.920   2.932  0.00  0.00    +0.000 A 
ATOM     37  C   UNL     1      -4.712  -0.947   2.616  0.00  0.00    +0.000 A 
ENDBRANCH  31  32
ENDBRANCH  25  31
ENDBRANCH   1  25
TORSDOF 14
