REMARK  Name = 446620
REMARK  8 active torsions:
REMARK  status: ('A' for Active; 'I' for Inactive)
REMARK    1  A    between atoms: O_2  and  C_19
REMARK    2  A    between atoms: OD1_4  and  CG_21
REMARK    3  A    between atoms: N_6  and  CA_11
REMARK    4  A    between atoms: C_8  and  C_10
REMARK    5  A    between atoms: C_10  and  C_14
REMARK    6  A    between atoms: CA_11  and  CB_15
REMARK    7  A    between atoms: CA_11  and  C_19
REMARK    8  A    between atoms: CB_15  and  CG_21
REMARK                            x       y       z     vdW  Elec       q    Type
REMARK                         _______ _______ _______ _____ _____    ______ ____
ROOT
ATOM      1  O   UNL     1       0.705  -1.493   1.647  0.00  0.00    +0.000 OA
ATOM      2  N   UNL     1       1.555  -0.276  -0.139  0.00  0.00    +0.000 N 
ATOM      3  C   ACE A   0       0.695  -1.185   0.456  0.00  0.00    +0.000 C 
ATOM      4  H   UNL     1       1.414  -0.024  -1.113  0.00  0.00    +0.000 HD
ENDROOT
BRANCH   3   5
ATOM      5  C   UNL     1      -0.331  -1.769  -0.509  0.00  0.00    +0.000 C 
BRANCH   5   7
ATOM      6  N   UNL     1      -3.679  -1.448   0.912  0.00  0.00    +0.000 N 
ATOM      7  C   UNL     1      -1.695  -1.398  -0.083  0.00  0.00    +0.000 A 
ATOM      8  C   UNL     1      -2.419  -0.237  -0.476  0.00  0.00    +0.000 A 
ATOM      9  C   UNL     1      -3.660  -0.293   0.163  0.00  0.00    +0.000 A 
ATOM     10  C   UNL     1      -2.496  -2.122   0.770  0.00  0.00    +0.000 A 
ATOM     11  C   UNL     1      -2.137   0.859  -1.315  0.00  0.00    +0.000 A 
ATOM     12  C   UNL     1      -4.637   0.696   0.003  0.00  0.00    +0.000 A 
ATOM     13  C   UNL     1      -3.105   1.856  -1.485  0.00  0.00    +0.000 A 
ATOM     14  C   UNL     1      -4.335   1.774  -0.835  0.00  0.00    +0.000 A 
ATOM     15  H   UNL     1      -4.454  -1.753   1.484  0.00  0.00    +0.000 HD
ENDBRANCH   5   7
ENDBRANCH   3   5
BRANCH   2  16
ATOM     16  CA  UNL     1       2.581   0.422   0.600  0.00  0.00    +0.000 C 
BRANCH  16  18
ATOM     17  OXT UNL     1       2.681   2.399   2.001  0.00  0.00    +0.000 OA
ATOM     18  C   UNL     1       2.031   1.681   1.250  0.00  0.00    +0.000 C 
BRANCH  18  19
ATOM     19  O   UNL     1       0.742   1.937   0.923  0.00  0.00    +0.000 OA
ATOM     20  H   UNL     1       0.407   2.752   1.355  0.00  0.00    +0.000 HD
ENDBRANCH  18  19
ENDBRANCH  16  18
BRANCH  16  21
ATOM     21  CB  UNL     1       3.769   0.769  -0.301  0.00  0.00    +0.000 C 
BRANCH  21  23
ATOM     22  OD2 UNL     1       4.429  -1.573  -0.466  0.00  0.00    +0.000 OA
ATOM     23  CG  UNL     1       4.390  -0.450  -0.950  0.00  0.00    +0.000 C 
BRANCH  23  24
ATOM     24  OD1 UNL     1       4.916  -0.149  -2.166  0.00  0.00    +0.000 OA
ATOM     25  HD1 UNL     1       5.321  -0.934  -2.593  0.00  0.00    +0.000 HD
ENDBRANCH  23  24
ENDBRANCH  21  23
ENDBRANCH  16  21
ENDBRANCH   2  16
TORSDOF 8
