REMARK  Name = 46937118
REMARK  12 active torsions:
REMARK  status: ('A' for Active; 'I' for Inactive)
REMARK    1  A    between atoms: O_1  and  C_8
REMARK    2  A    between atoms: N_4  and  C_7
REMARK    3  A    between atoms: N_5  and  C_11
REMARK    4  A    between atoms: N_6  and  C_18
REMARK    5  A    between atoms: C_7  and  C_8
REMARK    6  A    between atoms: C_7  and  C_9
REMARK    7  A    between atoms: C_8  and  C_13
REMARK    8  A    between atoms: C_9  and  C_10
REMARK    9  A    between atoms: C_11  and  C_12
REMARK   10  A    between atoms: C_11  and  C_14
REMARK   11  A    between atoms: C_17  and  C_18
REMARK   12  A    between atoms: C_18  and  C_22
REMARK                            x       y       z     vdW  Elec       q    Type
REMARK                         _______ _______ _______ _____ _____    ______ ____
ROOT
ATOM      1  O   UNL     1       0.070  -1.059  -1.615  0.00  0.00    +0.000 OA
ATOM      2  N   UNL     1       1.343  -1.171   0.321  0.00  0.00    +0.000 N 
ATOM      3  C   UNL     1       0.221  -1.427  -0.452  0.00  0.00    +0.000 C 
ATOM      4  H   UNL     1       1.373  -1.506   1.279  0.00  0.00    +0.000 HD
ENDROOT
BRANCH   3   5
ATOM      5  C   UNL     1      -0.831  -2.216   0.319  0.00  0.00    +0.000 C 
ATOM      6  C   UNL     1      -0.628  -3.711   0.108  0.00  0.00    +0.000 C 
BRANCH   5   8
ATOM      7  O   UNL     1      -2.444  -0.051   1.318  0.00  0.00    +0.000 OA
ATOM      8  N   UNL     1      -2.150  -1.812  -0.161  0.00  0.00    +0.000 N 
ATOM      9  C   UNL     1      -2.842  -0.754   0.391  0.00  0.00    +0.000 C 
ATOM     10  H   UNL     1      -2.525  -2.285  -0.978  0.00  0.00    +0.000 HD
BRANCH   9  11
ATOM     11  C   UNL     1      -4.194  -0.558  -0.285  0.00  0.00    +0.000 C 
ATOM     12  C   UNL     1      -4.067   0.423  -1.444  0.00  0.00    +0.000 C 
BRANCH  11  13
ATOM     13  N   UNL     1      -5.134  -0.048   0.709  0.00  0.00    +0.000 NA
ATOM     14  H   UNL     1      -6.044   0.102   0.275  0.00  0.00    +0.000 HD
ATOM     15  H   UNL     1      -5.278  -0.749   1.436  0.00  0.00    +0.000 HD
ENDBRANCH  11  13
ENDBRANCH   9  11
ENDBRANCH   5   8
ENDBRANCH   3   5
BRANCH   2  16
ATOM     16  C   UNL     1       2.482  -0.426  -0.177  0.00  0.00    +0.000 C 
BRANCH  16  17
ATOM     17  C   UNL     1       3.747  -1.309  -0.192  0.00  0.00    +0.000 C 
ATOM     18  C   UNL     1       4.190  -1.742   1.202  0.00  0.00    +0.000 C 
BRANCH  17  19
ATOM     19  O   UNL     1       3.519  -2.467  -0.991  0.00  0.00    +0.000 OA
ATOM     20  H   UNL     1       4.345  -2.980  -1.008  0.00  0.00    +0.000 HD
ENDBRANCH  17  19
ENDBRANCH  16  17
BRANCH  16  21
ATOM     21  C   UNL     1       2.640   0.859   0.659  0.00  0.00    +0.000 C 
BRANCH  21  22
ATOM     22  C   UNL     1       1.622   1.926   0.341  0.00  0.00    +0.000 A 
ATOM     23  C   UNL     1       1.889   2.874  -0.646  0.00  0.00    +0.000 A 
ATOM     24  C   UNL     1       0.412   1.963   1.035  0.00  0.00    +0.000 A 
ATOM     25  C   UNL     1       0.947   3.860  -0.939  0.00  0.00    +0.000 A 
ATOM     26  C   UNL     1      -0.530   2.949   0.742  0.00  0.00    +0.000 A 
ATOM     27  C   UNL     1      -0.262   3.898  -0.245  0.00  0.00    +0.000 A 
ENDBRANCH  21  22
ENDBRANCH  16  21
ENDBRANCH   2  16
TORSDOF 9
