REMARK  Name = 
REMARK  23 active torsions:
REMARK  status: ('A' for Active; 'I' for Inactive)
REMARK    1  A    between atoms: C_1  and  C_2
REMARK    2  A    between atoms: C_2  and  N_3
REMARK    3  A    between atoms: N_3  and  C_4
REMARK    4  A    between atoms: N_3  and  C_6
REMARK    5  A    between atoms: C_4  and  C_5
REMARK    6  A    between atoms: C_6  and  C_7
REMARK    7  A    between atoms: C_7  and  N_8
REMARK    8  A    between atoms: C_11  and  O_12
REMARK    9  A    between atoms: O_12  and  C_13
REMARK   10  A    between atoms: C_24  and  O_25
REMARK   11  A    between atoms: O_25  and  C_26
REMARK   12  A    between atoms: C_26  and  C_28
REMARK   13  A    between atoms: C_30  and  O_31
REMARK   14  A    between atoms: O_31  and  C_32
REMARK   15  A    between atoms: C_33  and  O_34
REMARK   16  A    between atoms: O_34  and  C_35
REMARK   17  A    between atoms: C_36  and  O_37
REMARK   18  A    between atoms: O_37  and  C_38
REMARK   19  A    between atoms: C_40  and  O_41
REMARK   20  A    between atoms: O_41  and  C_42
REMARK   21  A    between atoms: C_43  and  C_44
REMARK   22  A    between atoms: C_44  and  O_46
REMARK   23  A    between atoms: O_46  and  C_47
REMARK                            x       y       z     vdW  Elec       q    Type
REMARK                         _______ _______ _______ _____ _____    ______ ____
ROOT
ATOM      1  N   UNL     1      -4.595   0.302   0.522  0.00  0.00    +0.000 N 
ATOM      2  C   UNL     1      -5.678  -0.306  -0.055  0.00  0.00    +0.000 A 
ATOM      3  C   UNL     1      -6.439  -1.273   0.595  0.00  0.00    +0.000 A 
ATOM      4  C   UNL     1      -6.767  -2.477  -0.005  0.00  0.00    +0.000 A 
ATOM      5  C   UNL     1      -6.066  -2.925  -1.106  0.00  0.00    +0.000 A 
ATOM      6  C   UNL     1      -5.462  -1.958  -1.844  0.00  0.00    +0.000 A 
ATOM      7  C   UNL     1      -5.146  -0.722  -1.277  0.00  0.00    +0.000 A 
ATOM      8  C   UNL     1      -4.126   0.176  -1.586  0.00  0.00    +0.000 A 
ATOM      9  C   UNL     1      -3.668   0.625  -0.348  0.00  0.00    +0.000 A 
ATOM     10  C   UNL     1      -2.062   0.503  -0.377  0.00  0.00    +0.000 C 
ATOM     11  C   UNL     1      -1.833   0.489   1.235  0.00  0.00    +0.000 C 
ATOM     12  C   UNL     1      -0.220   0.298   1.332  0.00  0.00    +0.000 C 
ATOM     13  C   UNL     1      -0.147  -1.374   1.167  0.00  0.00    +0.000 C 
ATOM     14  C   UNL     1       1.441  -1.224   0.841  0.00  0.00    +0.000 C 
ATOM     15  C   UNL     1       1.894   0.064   1.753  0.00  0.00    +0.000 C 
ATOM     16  C   UNL     1       1.722   1.376   0.656  0.00  0.00    +0.000 C 
ATOM     17  C   UNL     1       0.279   0.909  -0.150  0.00  0.00    +0.000 C 
ATOM     18  C   UNL     1      -0.804  -1.553  -0.286  0.00  0.00    +0.000 C 
ATOM     19  N   UNL     1      -2.088  -1.086  -0.416  0.00  0.00    +0.000 NA
ATOM     20  C   UNL     1      -2.326  -1.262  -1.851  0.00  0.00    +0.000 C 
ATOM     21  C   UNL     1      -2.963  -0.044  -2.512  0.00  0.00    +0.000 C 
ENDROOT
BRANCH   4  22
ATOM     22  O   UNL     1      -7.468  -3.487   0.662  0.00  0.00    +0.000 OA
ATOM     23  C   UNL     1      -7.894  -4.652  -0.013  0.00  0.00    +0.000 C 
ENDBRANCH   4  22
BRANCH  16  24
ATOM     24  O   UNL     1       1.058   2.216   1.701  0.00  0.00    +0.000 OA
ATOM     25  C   UNL     1       2.229   2.698   2.309  0.00  0.00    +0.000 C 
ENDBRANCH  16  24
BRANCH  17  26
ATOM     26  C   UNL     1       1.159  -0.123  -0.961  0.00  0.00    +0.000 C 
ATOM     27  O   UNL     1       2.206   0.532  -1.391  0.00  0.00    +0.000 OA
BRANCH  26  28
ATOM     28  O   UNL     1       0.779  -0.551  -2.258  0.00  0.00    +0.000 OA
ATOM     29  C   UNL     1       1.736  -1.412  -2.906  0.00  0.00    +0.000 C 
ENDBRANCH  26  28
ENDBRANCH  17  26
BRANCH   1  30
ATOM     30  C   UNL     1      -4.575   1.044   1.759  0.00  0.00    +0.000 C 
BRANCH  30  31
ATOM     31  C   UNL     1      -4.568   2.526   1.612  0.00  0.00    +0.000 C 
BRANCH  31  32
ATOM     32  N   UNL     1      -5.546   3.122   0.752  0.00  0.00    +0.000 NA
BRANCH  32  34
ATOM     33  C   UNL     1      -4.965   5.267  -0.325  0.00  0.00    +0.000 C 
ATOM     34  C   UNL     1      -4.909   3.776  -0.390  0.00  0.00    +0.000 C 
ENDBRANCH  32  34
BRANCH  32  35
ATOM     35  C   UNL     1      -6.205   4.221   1.456  0.00  0.00    +0.000 C 
ATOM     36  C   UNL     1      -7.538   4.560   0.874  0.00  0.00    +0.000 C 
ENDBRANCH  32  35
ENDBRANCH  31  32
ENDBRANCH  30  31
ENDBRANCH   1  30
BRANCH  15  37
ATOM     37  O   UNL     1       3.358  -0.045   1.312  0.00  0.00    +0.000 OA
BRANCH  37  38
ATOM     38  C   UNL     1       3.929  -1.281   1.164  0.00  0.00    +0.000 C 
ATOM     39  O   UNL     1       3.408  -2.262   1.757  0.00  0.00    +0.000 OA
BRANCH  38  40
ATOM     40  C   UNL     1       5.259  -1.337   0.538  0.00  0.00    +0.000 A 
ATOM     41  C   UNL     1       6.310  -1.246   1.452  0.00  0.00    +0.000 A 
ATOM     42  C   UNL     1       7.417  -0.450   1.152  0.00  0.00    +0.000 A 
ATOM     43  C   UNL     1       7.658  -0.035  -0.157  0.00  0.00    +0.000 A 
ATOM     44  C   UNL     1       6.727  -0.376  -1.128  0.00  0.00    +0.000 A 
ATOM     45  C   UNL     1       5.478  -0.838  -0.738  0.00  0.00    +0.000 A 
BRANCH  42  46
ATOM     46  O   UNL     1       8.581  -0.476   1.933  0.00  0.00    +0.000 OA
ATOM     47  C   UNL     1       9.024  -1.737   2.355  0.00  0.00    +0.000 C 
ENDBRANCH  42  46
BRANCH  43  48
ATOM     48  O   UNL     1       8.583   0.950  -0.472  0.00  0.00    +0.000 OA
ATOM     49  C   UNL     1       8.207   2.300  -0.277  0.00  0.00    +0.000 C 
ENDBRANCH  43  48
BRANCH  44  50
ATOM     50  O   UNL     1       7.152  -0.477  -2.457  0.00  0.00    +0.000 OA
ATOM     51  C   UNL     1       8.464  -0.966  -2.713  0.00  0.00    +0.000 C 
ENDBRANCH  44  50
ENDBRANCH  38  40
ENDBRANCH  37  38
ENDBRANCH  15  37
TORSDOF 15
