REMARK  Name = 6710104
REMARK  17 active torsions:
REMARK  status: ('A' for Active; 'I' for Inactive)
REMARK    1  A    between atoms: O_2  and  C_21
REMARK    2  A    between atoms: OH_4  and  CZ_26
REMARK    3  A    between atoms: N_5  and  CA_17
REMARK    4  A    between atoms: C_6  and  C_7
REMARK    5  A    between atoms: C_6  and  C_8
REMARK    6  A    between atoms: C_7  and  C_9
REMARK    7  A    between atoms: C_8  and  C_10
REMARK    8  A    between atoms: C_9  and  C_11
REMARK    9  A    between atoms: C_10  and  C_12
REMARK   10  A    between atoms: C_11  and  C_13
REMARK   11  A    between atoms: C_12  and  C_14
REMARK   12  A    between atoms: C_13  and  C_15
REMARK   13  A    between atoms: C_14  and  C_16
REMARK   14  A    between atoms: C_15  and  C_19
REMARK   15  A    between atoms: CA_17  and  CB_18
REMARK   16  A    between atoms: CA_17  and  C_21
REMARK   17  A    between atoms: CB_18  and  CG_20
REMARK                            x       y       z     vdW  Elec       q    Type
REMARK                         _______ _______ _______ _____ _____    ______ ____
ROOT
ATOM      1  O   UNL     1      -3.297   1.986  -1.815  0.00  0.00    +0.000 OA
ATOM      2  N   UNL     1      -3.442   0.941   0.256  0.00  0.00    +0.000 N 
ATOM      3  C   ACE A   0      -3.150   1.996  -0.596  0.00  0.00    +0.000 C 
ATOM      4  H   UNL     1      -3.390   1.091   1.259  0.00  0.00    +0.000 HD
ENDROOT
BRANCH   3   5
ATOM      5  C   UNL     1      -2.614   3.196   0.167  0.00  0.00    +0.000 C 
BRANCH   5   6
ATOM      6  C   UNL     1      -1.331   2.877   0.930  0.00  0.00    +0.000 C 
BRANCH   6   7
ATOM      7  C   UNL     1      -0.209   2.455  -0.019  0.00  0.00    +0.000 C 
BRANCH   7   8
ATOM      8  C   UNL     1       1.067   2.103   0.748  0.00  0.00    +0.000 C 
BRANCH   8   9
ATOM      9  C   UNL     1       2.179   1.649  -0.201  0.00  0.00    +0.000 C 
BRANCH   9  10
ATOM     10  C   UNL     1       3.464   1.329   0.565  0.00  0.00    +0.000 C 
BRANCH  10  11
ATOM     11  C   UNL     1       4.616   0.876  -0.339  0.00  0.00    +0.000 C 
BRANCH  11  12
ATOM     12  C   UNL     1       5.937   0.563   0.371  0.00  0.00    +0.000 C 
BRANCH  12  13
ATOM     13  C   UNL     1       7.063   0.172  -0.589  0.00  0.00    +0.000 C 
BRANCH  13  14
ATOM     14  C   UNL     1       8.379  -0.147   0.124  0.00  0.00    +0.000 C 
ATOM     15  C   UNL     1       9.522  -0.466  -0.828  0.00  0.00    +0.000 C 
ENDBRANCH  13  14
ENDBRANCH  12  13
ENDBRANCH  11  12
ENDBRANCH  10  11
ENDBRANCH   9  10
ENDBRANCH   8   9
ENDBRANCH   7   8
ENDBRANCH   6   7
ENDBRANCH   5   6
ENDBRANCH   3   5
BRANCH   2  16
ATOM     16  CA  UNL     1      -3.965  -0.326  -0.203  0.00  0.00    +0.000 C 
BRANCH  16  18
ATOM     17  OXT UNL     1      -6.143  -1.215  -0.765  0.00  0.00    +0.000 OA
ATOM     18  C   UNL     1      -5.481  -0.284  -0.318  0.00  0.00    +0.000 C 
BRANCH  18  19
ATOM     19  O   UNL     1      -6.054   0.864   0.119  0.00  0.00    +0.000 OA
ATOM     20  H   UNL     1      -7.030   0.844   0.029  0.00  0.00    +0.000 HD
ENDBRANCH  18  19
ENDBRANCH  16  18
BRANCH  16  21
ATOM     21  CB  UNL     1      -3.542  -1.469   0.729  0.00  0.00    +0.000 C 
BRANCH  21  22
ATOM     22  CG  UNL     1      -2.117  -1.915   0.504  0.00  0.00    +0.000 A 
ATOM     23  CD1 UNL     1      -1.839  -2.926  -0.416  0.00  0.00    +0.000 A 
ATOM     24  CD2 UNL     1      -1.078  -1.315   1.216  0.00  0.00    +0.000 A 
ATOM     25  CE1 UNL     1      -0.522  -3.338  -0.623  0.00  0.00    +0.000 A 
ATOM     26  CE2 UNL     1       0.238  -1.727   1.008  0.00  0.00    +0.000 A 
ATOM     27  CZ  UNL     1       0.516  -2.738   0.089  0.00  0.00    +0.000 A 
BRANCH  27  28
ATOM     28  OH  UNL     1       1.801  -3.140  -0.114  0.00  0.00    +0.000 OA
ATOM     29  HH  UNL     1       2.389  -2.613   0.454  0.00  0.00    +0.000 HD
ENDBRANCH  27  28
ENDBRANCH  21  22
ENDBRANCH  16  21
ENDBRANCH   2  16
TORSDOF 16
