REMARK  Name = 443380
REMARK  14 active torsions:
REMARK  status: ('A' for Active; 'I' for Inactive)
REMARK    1  A    between atoms: O_2  and  C_23
REMARK    2  A    between atoms: O_2  and  C_26
REMARK    3  A    between atoms: O_3  and  C_24
REMARK    4  A    between atoms: O_5  and  C_25
REMARK    5  A    between atoms: O_7  and  C_27
REMARK    6  A    between atoms: O_7  and  C_28
REMARK    7  A    between atoms: N_8  and  C_16
REMARK    8  A    between atoms: C_9  and  C_12
REMARK    9  A    between atoms: C_9  and  C_15
REMARK   10  A    between atoms: C_12  and  C_17
REMARK   11  A    between atoms: C_17  and  C_23
REMARK   12  A    between atoms: C_17  and  C_24
REMARK   13  A    between atoms: C_20  and  C_25
REMARK   14  A    between atoms: C_26  and  C_27
REMARK                            x       y       z     vdW  Elec       q    Type
REMARK                         _______ _______ _______ _____ _____    ______ ____
ROOT
ATOM      1  C   UNL     1       2.841   0.236  -0.507  0.00  0.00    +0.000 C 
ATOM      2  C   UNL     1       4.094  -0.542  -0.071  0.00  0.00    +0.000 C 
ATOM      3  C   UNL     1       3.360   1.411  -1.360  0.00  0.00    +0.000 C 
ATOM      4  C   UNL     1       5.215   0.487  -0.128  0.00  0.00    +0.000 C 
ATOM      5  C   UNL     1       4.882   1.282  -1.377  0.00  0.00    +0.000 C 
ENDROOT
BRANCH   1   8
ATOM      6  O   UNL     1       2.509   0.523   1.848  0.00  0.00    +0.000 OA
ATOM      7  N   UNL     1       1.044   1.567   0.370  0.00  0.00    +0.000 N 
ATOM      8  C   UNL     1       2.135   0.784   0.707  0.00  0.00    +0.000 C 
ATOM      9  H   UNL     1       0.797   1.681  -0.608  0.00  0.00    +0.000 HD
BRANCH   7  10
ATOM     10  C   UNL     1       0.185   2.191   1.350  0.00  0.00    +0.000 C 
ATOM     11  C   UNL     1      -0.940   1.243   1.774  0.00  0.00    +0.000 C 
ATOM     12  C   UNL     1      -0.364   3.527   0.839  0.00  0.00    +0.000 C 
ATOM     13  C   UNL     1      -2.555   2.419   0.227  0.00  0.00    +0.000 C 
ATOM     14  C   UNL     1      -2.003   1.071   0.689  0.00  0.00    +0.000 C 
ATOM     15  C   UNL     1      -1.439   3.356  -0.235  0.00  0.00    +0.000 C 
BRANCH  13  17
ATOM     16  O   UNL     1      -3.462   1.312  -1.721  0.00  0.00    +0.000 OA
ATOM     17  C   UNL     1      -3.523   2.213  -0.898  0.00  0.00    +0.000 C 
BRANCH  17  18
ATOM     18  O   UNL     1      -4.484   3.169  -0.883  0.00  0.00    +0.000 OA
ATOM     19  H   UNL     1      -5.129   3.052  -1.613  0.00  0.00    +0.000 HD
ENDBRANCH  17  18
ENDBRANCH  13  17
ENDBRANCH   7  10
ENDBRANCH   1   8
BRANCH   1  20
ATOM     20  C   UNL     1       1.863  -0.652  -1.272  0.00  0.00    +0.000 C 
BRANCH  20  21
ATOM     21  C   UNL     1       0.934  -1.493  -0.385  0.00  0.00    +0.000 C 
BRANCH  21  23
ATOM     22  O   UNL     1       2.464  -3.346   0.052  0.00  0.00    +0.000 OA
ATOM     23  C   UNL     1       1.745  -2.451   0.478  0.00  0.00    +0.000 C 
BRANCH  23  24
ATOM     24  O   UNL     1       1.590  -2.204   1.805  0.00  0.00    +0.000 OA
ATOM     25  H   UNL     1       2.118  -2.820   2.356  0.00  0.00    +0.000 HD
ENDBRANCH  23  24
ENDBRANCH  21  23
BRANCH  21  26
ATOM     26  C   UNL     1      -0.130  -2.245  -1.192  0.00  0.00    +0.000 C 
BRANCH  26  27
ATOM     27  O   UNL     1      -1.258  -2.535  -0.372  0.00  0.00    +0.000 OA
BRANCH  27  28
ATOM     28  C   UNL     1      -2.283  -3.182  -1.110  0.00  0.00    +0.000 C 
BRANCH  28  29
ATOM     29  C   UNL     1      -3.454  -3.464  -0.188  0.00  0.00    +0.000 C 
BRANCH  29  30
ATOM     30  O   UNL     1      -3.925  -2.236   0.352  0.00  0.00    +0.000 OA
ATOM     31  C   UNL     1      -5.040  -2.438   1.210  0.00  0.00    +0.000 C 
ENDBRANCH  29  30
ENDBRANCH  28  29
ENDBRANCH  27  28
ENDBRANCH  26  27
ENDBRANCH  21  26
ENDBRANCH  20  21
ENDBRANCH   1  20
TORSDOF 13
