REMARK  Name = 
REMARK  24 active torsions:
REMARK  status: ('A' for Active; 'I' for Inactive)
REMARK    1  A    between atoms: C_3  and  N_39
REMARK    2  A    between atoms: C_6  and  C_7
REMARK    3  A    between atoms: N_9  and  C_10
REMARK    4  A    between atoms: C_10  and  C_11
REMARK    5  A    between atoms: C_10  and  C_36
REMARK    6  A    between atoms: C_11  and  C_12
REMARK    7  A    between atoms: C_12  and  C_13
REMARK    8  A    between atoms: N_15  and  C_16
REMARK    9  A    between atoms: C_16  and  C_17
REMARK   10  A    between atoms: C_17  and  C_18
REMARK   11  A    between atoms: C_17  and  N_35
REMARK   12  A    between atoms: N_20  and  CA_21
REMARK   13  A    between atoms: CA_21  and  CB_22
REMARK   14  A    between atoms: CA_21  and  C_26
REMARK   15  A    between atoms: CB_22  and  CG_23
REMARK   16  A    between atoms: CG_23  and  OD2_25
REMARK   17  A    between atoms: N_28  and  CA_29
REMARK   18  A    between atoms: CA_29  and  CB_30
REMARK   19  A    between atoms: CA_29  and  C_32
REMARK   20  A    between atoms: CB_30  and  SG_31
REMARK   21  A    between atoms: C_32  and  OXT_34
REMARK   22  A    between atoms: C_36  and  O_38
REMARK   23  A    between atoms: N_39  and  C_40
REMARK   24  A    between atoms: C_40  and  C_41
REMARK                            x       y       z     vdW  Elec       q    Type
REMARK                         _______ _______ _______ _____ _____    ______ ____
ROOT
ATOM      1  C   UNK A   1      -2.147   0.406   0.000  0.00  0.00    +0.000 C 
ENDROOT
BRANCH   1   2
ATOM      2  C   UNK A   1      -2.147  -0.419   0.000  0.00  0.00    +0.000 C 
ATOM      3  O   UNK A   1      -2.860  -0.825   0.000  0.00  0.00    +0.000 OA
ATOM      4  N   UNK A   1      -1.433  -0.825   0.000  0.00  0.00    +0.000 N 
ATOM      5  H   UNK A   1      -0.582  -0.330   0.000  0.00  0.00    +0.000 HD
BRANCH   4   6
ATOM      6  C   UNK A   1      -1.433  -1.650   0.000  0.00  0.00    +0.000 C 
BRANCH   6   7
ATOM      7  C   UNK A   1      -0.720  -2.070   0.000  0.00  0.00    +0.000 C 
BRANCH   7   8
ATOM      8  C   UNK A   1      -0.734  -2.881   0.000  0.00  0.00    +0.000 C 
ATOM      9  O   UNK A   1      -1.447  -3.300   0.000  0.00  0.00    +0.000 OA
ATOM     10  N   ASP A   2      -0.021  -3.300   0.000  0.00  0.00    +0.000 N 
ATOM     11  H   ASP A   2       0.834  -2.811   0.000  0.00  0.00    +0.000 HD
BRANCH  10  12
ATOM     12  CA  ASP A   2      -0.021  -4.125   0.000  0.00  0.00    +0.000 C 
BRANCH  12  13
ATOM     13  C   ASP A   2      -0.734  -4.531   0.000  0.00  0.00    +0.000 C 
ATOM     14  O   ASP A   2      -1.447  -4.111   0.000  0.00  0.00    +0.000 OA
ATOM     15  N   CYS A   3      -0.734  -5.356   0.000  0.00  0.00    +0.000 N 
ATOM     16  H   CYS A   3       0.117  -5.851   0.000  0.00  0.00    +0.000 HD
BRANCH  15  17
ATOM     17  CA  CYS A   3      -1.447  -5.761   0.000  0.00  0.00    +0.000 C 
BRANCH  17  18
ATOM     18  C   CYS A   3      -2.160  -5.342   0.000  0.00  0.00    +0.000 C 
ATOM     19  O   CYS A   3      -2.160  -4.517   0.000  0.00  0.00    +0.000 OA
BRANCH  18  20
ATOM     20  OXT CYS A   3      -2.874  -5.747   0.000  0.00  0.00    +0.000 OA
ATOM     21  HXT CYS A   3      -3.682  -5.274   0.000  0.00  0.00    +0.000 HD
ENDBRANCH  18  20
ENDBRANCH  17  18
BRANCH  17  22
ATOM     22  CB  CYS A   3      -1.447  -6.572   0.000  0.00  0.00    +0.000 C 
BRANCH  22  23
ATOM     23  SG  CYS A   3      -0.734  -6.992   0.000  0.00  0.00    +0.000 S 
ATOM     24  HG  CYS A   3      -0.745  -8.352   0.000  0.00  0.00    +0.000 HD
ENDBRANCH  22  23
ENDBRANCH  17  22
ENDBRANCH  15  17
ENDBRANCH  12  13
BRANCH  12  25
ATOM     25  CB  ASP A   2       0.692  -4.531   0.000  0.00  0.00    +0.000 C 
BRANCH  25  26
ATOM     26  CG  ASP A   2       1.405  -4.125   0.000  0.00  0.00    +0.000 C 
ATOM     27  OD1 ASP A   2       1.405  -3.300   0.000  0.00  0.00    +0.000 OA
BRANCH  26  28
ATOM     28  OD2 ASP A   2       2.119  -4.531   0.000  0.00  0.00    +0.000 OA
ATOM     29  HD2 ASP A   2       2.125  -5.468   0.000  0.00  0.00    +0.000 HD
ENDBRANCH  26  28
ENDBRANCH  25  26
ENDBRANCH  12  25
ENDBRANCH  10  12
ENDBRANCH   7   8
BRANCH   7  30
ATOM     30  N   UNK A   1      -0.007  -1.650   0.000  0.00  0.00    +0.000 NA
ATOM     31  H   UNK A   1       0.880  -2.153   0.000  0.00  0.00    +0.000 HD
ATOM     32  H   UNK A   1      -0.015  -0.630   0.000  0.00  0.00    +0.000 HD
ENDBRANCH   7  30
ENDBRANCH   6   7
ENDBRANCH   4   6
ENDBRANCH   1   2
BRANCH   1  33
ATOM     33  C   UNK A   1      -2.846   0.825   0.000  0.00  0.00    +0.000 C 
BRANCH  33  34
ATOM     34  C   UNK A   1      -2.846   1.636   0.000  0.00  0.00    +0.000 C 
BRANCH  34  37
ATOM     35  C   UNK A   0      -2.132   2.867   0.000  0.00  0.00    +0.000 C 
ATOM     36  O   UNK A   0      -2.846   3.286   0.000  0.00  0.00    +0.000 OA
ATOM     37  N   UNK A   1      -2.132   2.042   0.000  0.00  0.00    +0.000 N 
ATOM     38  H   UNK A   1      -1.282   1.546   0.000  0.00  0.00    +0.000 HD
BRANCH  35  44
ATOM     39  C   UNK A   0      -1.419   4.097   0.000  0.00  0.00    +0.000 A 
ATOM     40  C   UNK A   0      -0.706   4.517   0.000  0.00  0.00    +0.000 A 
ATOM     41  C   UNK A   0       0.007   4.097   0.000  0.00  0.00    +0.000 A 
ATOM     42  C   UNK A   0       0.007   3.272   0.000  0.00  0.00    +0.000 A 
ATOM     43  C   UNK A   0      -0.706   2.867   0.000  0.00  0.00    +0.000 A 
ATOM     44  C   UNK A   0      -1.419   3.272   0.000  0.00  0.00    +0.000 A 
BRANCH  41  45
ATOM     45  N   UNK A   0       0.720   4.517   0.000  0.00  0.00    +0.000 N 
ATOM     46  H   UNK A   0       1.575   4.028   0.000  0.00  0.00    +0.000 HD
BRANCH  45  47
ATOM     47  C   UNK A   0       0.720   5.342   0.000  0.00  0.00    +0.000 C 
BRANCH  47  48
ATOM     48  C   UNK A   0       1.419   5.747   0.000  0.00  0.00    +0.000 A 
ATOM     49  C   UNK A   0       1.419   6.572   0.000  0.00  0.00    +0.000 A 
ATOM     50  N   UNK A   0       2.132   6.992   0.000  0.00  0.00    +0.000 N 
ATOM     51  C   UNK A   0       2.846   6.572   0.000  0.00  0.00    +0.000 A 
ATOM     52  N   UNK A   0       3.559   6.992   0.000  0.00  0.00    +0.000 NA
ATOM     53  C   UNK A   0       4.272   6.572   0.000  0.00  0.00    +0.000 A 
ATOM     54  N   UNK A   0       4.272   5.747   0.000  0.00  0.00    +0.000 NA
ATOM     55  C   UNK A   0       3.559   5.342   0.000  0.00  0.00    +0.000 A 
ATOM     56  O   UNK A   0       3.559   4.517   0.000  0.00  0.00    +0.000 OA
ATOM     57  C   UNK A   0       2.846   5.747   0.000  0.00  0.00    +0.000 A 
ATOM     58  N   UNK A   0       2.132   5.342   0.000  0.00  0.00    +0.000 NA
ATOM     59  H   UNK A   0       2.132   7.976   0.000  0.00  0.00    +0.000 HD
ENDBRANCH  47  48
ENDBRANCH  45  47
ENDBRANCH  41  45
ENDBRANCH  35  44
ENDBRANCH  34  37
BRANCH  34  60
ATOM     60  C   UNK A   1      -3.559   2.056   0.000  0.00  0.00    +0.000 C 
ATOM     61  O   UNK A   1      -3.559   2.881   0.000  0.00  0.00    +0.000 OA
BRANCH  60  62
ATOM     62  O   UNK A   1      -4.272   1.650   0.000  0.00  0.00    +0.000 OA
ATOM     63  H   UNK A   1      -5.080   2.124   0.000  0.00  0.00    +0.000 HD
ENDBRANCH  60  62
ENDBRANCH  34  60
ENDBRANCH  33  34
ENDBRANCH   1  33
TORSDOF 24
