REMARK  Name = 72145
REMARK  14 active torsions:
REMARK  status: ('A' for Active; 'I' for Inactive)
REMARK    1  A    between atoms: O_2  and  C_18
REMARK    2  A    between atoms: O_2  and  C_30
REMARK    3  A    between atoms: O_5  and  C_22
REMARK    4  A    between atoms: O_5  and  C_31
REMARK    5  A    between atoms: O_6  and  C_27
REMARK    6  A    between atoms: O_6  and  C_32
REMARK    7  A    between atoms: O_8  and  C_28
REMARK    8  A    between atoms: O_8  and  C_33
REMARK    9  A    between atoms: N_9  and  C_20
REMARK   10  A    between atoms: N_10  and  C_26
REMARK   11  A    between atoms: C_11  and  C_12
REMARK   12  A    between atoms: C_31  and  C_34
REMARK   13  A    between atoms: C_32  and  C_35
REMARK   14  A    between atoms: C_33  and  C_36
REMARK                            x       y       z     vdW  Elec       q    Type
REMARK                         _______ _______ _______ _____ _____    ______ ____
ROOT
ATOM      1  O   UNL     1       0.689  -1.503   0.882  0.00  0.00    +0.000 OA
ATOM      2  O   UNL     1      -0.432  -3.513   1.056  0.00  0.00    +0.000 OA
ATOM      3  C   UNL     1       0.356  -0.118   0.643  0.00  0.00    +0.000 C 
ATOM      4  C   UNL     1      -1.098  -0.151   0.435  0.00  0.00    +0.000 A 
ATOM      5  C   UNL     1      -1.550  -1.447   0.589  0.00  0.00    +0.000 A 
ATOM      6  C   UNL     1      -1.989   0.871   0.161  0.00  0.00    +0.000 A 
ATOM      7  C   UNL     1      -0.416  -2.313   0.869  0.00  0.00    +0.000 C 
ATOM      8  C   UNL     1      -2.884  -1.792   0.475  0.00  0.00    +0.000 A 
ATOM      9  C   UNL     1      -3.346   0.555   0.040  0.00  0.00    +0.000 A 
ATOM     10  C   UNL     1      -3.790  -0.769   0.195  0.00  0.00    +0.000 A 
ENDROOT
BRANCH   3  14
ATOM     11  O   UNL     1       5.625   1.031   1.433  0.00  0.00    +0.000 OA
ATOM     12  O   UNL     1       6.620  -0.773   0.183  0.00  0.00    +0.000 OA
ATOM     13  N   UNL     1       0.512  -0.217  -1.810  0.00  0.00    +0.000 NA
ATOM     14  C   UNL     1       1.144   0.340  -0.595  0.00  0.00    +0.000 C 
ATOM     15  C   UNL     1       2.620   0.009  -0.436  0.00  0.00    +0.000 A 
ATOM     16  C   UNL     1       0.894  -1.617  -2.034  0.00  0.00    +0.000 C 
ATOM     17  C   UNL     1       3.208  -1.056  -1.165  0.00  0.00    +0.000 A 
ATOM     18  C   UNL     1       2.403  -1.826  -2.181  0.00  0.00    +0.000 C 
ATOM     19  C   UNL     1       3.402   0.752   0.465  0.00  0.00    +0.000 A 
ATOM     20  C   UNL     1       0.755   0.616  -2.988  0.00  0.00    +0.000 C 
ATOM     21  C   UNL     1       4.568  -1.363  -0.998  0.00  0.00    +0.000 A 
ATOM     22  C   UNL     1       4.733   0.417   0.609  0.00  0.00    +0.000 A 
ATOM     23  C   UNL     1       5.299  -0.612  -0.102  0.00  0.00    +0.000 A 
ATOM     24  C   UNL     1       6.820   0.271   1.158  0.00  0.00    +0.000 C 
BRANCH  19  25
ATOM     25  O   UNL     1       2.915   1.819   1.150  0.00  0.00    +0.000 OA
ATOM     26  C   UNL     1       3.039   3.100   0.533  0.00  0.00    +0.000 C 
ENDBRANCH  19  25
ENDBRANCH   3  14
BRANCH   8  27
ATOM     27  N   UNL     1      -3.321  -3.119   0.632  0.00  0.00    +0.000 N 
ATOM     28  H   UNL     1      -4.302  -3.343   0.526  0.00  0.00    +0.000 HD
ATOM     29  H   UNL     1      -2.658  -3.856   0.832  0.00  0.00    +0.000 HD
ENDBRANCH   8  27
BRANCH   6  30
ATOM     30  O   UNL     1      -1.560   2.153   0.024  0.00  0.00    +0.000 OA
BRANCH  30  31
ATOM     31  C   UNL     1      -1.521   2.957   1.204  0.00  0.00    +0.000 C 
ATOM     32  C   UNL     1      -1.006   4.334   0.845  0.00  0.00    +0.000 C 
ENDBRANCH  30  31
ENDBRANCH   6  30
BRANCH   9  33
ATOM     33  O   UNL     1      -4.248   1.544  -0.228  0.00  0.00    +0.000 OA
BRANCH  33  34
ATOM     34  C   UNL     1      -4.518   1.817  -1.600  0.00  0.00    +0.000 C 
ATOM     35  C   UNL     1      -5.546   2.925  -1.689  0.00  0.00    +0.000 C 
ENDBRANCH  33  34
ENDBRANCH   9  33
BRANCH  10  36
ATOM     36  O   UNL     1      -5.122  -1.046   0.071  0.00  0.00    +0.000 OA
BRANCH  36  37
ATOM     37  C   UNL     1      -5.908  -0.977   1.258  0.00  0.00    +0.000 C 
ATOM     38  C   UNL     1      -7.346  -1.300   0.915  0.00  0.00    +0.000 C 
ENDBRANCH  36  37
ENDBRANCH  10  36
TORSDOF 9
