REMARK  Name = 
REMARK  30 active torsions:
REMARK  status: ('A' for Active; 'I' for Inactive)
REMARK    1  A    between atoms: CD1_1  and  CG1_2
REMARK    2  A    between atoms: CG1_2  and  CB_3
REMARK    3  A    between atoms: CB_3  and  CG2_4
REMARK    4  A    between atoms: CB_3  and  CA_5
REMARK    5  A    between atoms: CA_5  and  N_6
REMARK    6  A    between atoms: CA_5  and  C_40
REMARK    7  A    between atoms: C_7  and  CA_9
REMARK    8  A    between atoms: CA_9  and  CB_10
REMARK    9  A    between atoms: CA_9  and  N_12
REMARK   10  A    between atoms: CB_10  and  OG_11
REMARK   11  A    between atoms: C_13  and  CA_15
REMARK   12  A    between atoms: CA_15  and  N_16
REMARK   13  A    between atoms: CA_15  and  CB_37
REMARK   14  A    between atoms: C_17  and  CA_19
REMARK   15  A    between atoms: C_24  and  CA_26
REMARK   16  A    between atoms: CA_26  and  CB_27
REMARK   17  A    between atoms: CA_26  and  N_28
REMARK   18  A    between atoms: C_29  and  CA_31
REMARK   19  A    between atoms: CA_31  and  N_32
REMARK   20  A    between atoms: CA_31  and  CB_33
REMARK   21  A    between atoms: CB_33  and  CG_34
REMARK   22  A    between atoms: CB_37  and  CG1_38
REMARK   23  A    between atoms: CB_37  and  CG2_39
REMARK   24  A    between atoms: CA_46  and  C_47
REMARK   25  A    between atoms: N_49  and  CA_50
REMARK   26  A    between atoms: CA_50  and  CB_51
REMARK   27  A    between atoms: CA_50  and  C_56
REMARK   28  A    between atoms: CB_51  and  CG_52
REMARK   29  A    between atoms: CG_52  and  CD_53
REMARK   30  A    between atoms: C_56  and  OXT_58
REMARK                            x       y       z     vdW  Elec       q    Type
REMARK                         _______ _______ _______ _____ _____    ______ ____
ROOT
ATOM      1  CA  SER A   5       0.266  -0.068  -1.497  0.00  0.00    +0.000 C 
ENDROOT
BRANCH   1   3
ATOM      2  N   ILE A   6       2.542  -0.110  -0.536  0.00  0.00    +0.000 N 
ATOM      3  C   SER A   5       1.300   0.597  -0.455  0.00  0.00    +0.000 C 
ATOM      4  O   SER A   5       1.391   1.797  -0.314  0.00  0.00    +0.000 OA
ATOM      5  H   ILE A   6       2.587  -1.091  -0.464  0.00  0.00    +0.000 HD
BRANCH   2   6
ATOM      6  CA  ILE A   6       3.830   0.767  -0.746  0.00  0.00    +0.000 C 
BRANCH   6   7
ATOM      7  C   ILE A   6       4.776  -0.393  -0.225  0.00  0.00    +0.000 C 
ATOM      8  O   ILE A   6       5.282  -0.603   0.804  0.00  0.00    +0.000 OA
ATOM      9  N   PRO A   7       5.006  -1.325  -1.245  0.00  0.00    +0.000 N 
ATOM     10  CD  PRO A   7       3.892  -2.053  -1.857  0.00  0.00    +0.000 C 
ATOM     11  CG  PRO A   7       3.689  -1.383  -3.213  0.00  0.00    +0.000 C 
ATOM     12  CB  PRO A   7       4.683  -0.225  -3.181  0.00  0.00    +0.000 C 
ATOM     13  CA  PRO A   7       5.886  -1.137  -2.528  0.00  0.00    +0.000 C 
BRANCH  13  14
ATOM     14  C   PRO A   7       6.689   0.157  -1.989  0.00  0.00    +0.000 C 
ATOM     15  O   PRO A   7       6.979   0.970  -2.920  0.00  0.00    +0.000 OA
ATOM     16  N   GLN A   8       7.803  -0.264  -1.221  0.00  0.00    +0.000 N 
ATOM     17  H   GLN A   8       7.937  -1.191  -0.916  0.00  0.00    +0.000 HD
BRANCH  16  18
ATOM     18  CA  GLN A   8       8.803   0.910  -0.907  0.00  0.00    +0.000 C 
BRANCH  18  19
ATOM     19  C   GLN A   8       9.326   0.995  -2.428  0.00  0.00    +0.000 C 
ATOM     20  O   GLN A   8      10.241   1.874  -2.462  0.00  0.00    +0.000 OA
BRANCH  19  21
ATOM     21  OXT GLN A   8       9.609  -0.166  -3.092  0.00  0.00    +0.000 OA
ATOM     22  HXT GLN A   8       8.981  -0.861  -3.109  0.00  0.00    +0.000 HD
ENDBRANCH  19  21
ENDBRANCH  18  19
BRANCH  18  23
ATOM     23  CB  GLN A   8      10.004  -0.128  -0.476  0.00  0.00    +0.000 C 
BRANCH  23  24
ATOM     24  CG  GLN A   8       9.514  -0.637   0.854  0.00  0.00    +0.000 C 
BRANCH  24  25
ATOM     25  CD  GLN A   8       9.421   0.509   1.783  0.00  0.00    +0.000 C 
ATOM     26  NE2 GLN A   8      10.560   1.062   2.438  0.00  0.00    +0.000 N 
ATOM     27  OE1 GLN A   8       8.271   0.970   2.024  0.00  0.00    +0.000 OA
ATOM     28 HE21 GLN A   8      11.458   0.704   2.251  0.00  0.00    +0.000 HD
ATOM     29 HE22 GLN A   8      10.450   1.803   3.076  0.00  0.00    +0.000 HD
ENDBRANCH  24  25
ENDBRANCH  23  24
ENDBRANCH  18  23
ENDBRANCH  16  18
ENDBRANCH  13  14
ENDBRANCH   6   7
BRANCH   6  30
ATOM     30  CB  ILE A   6       3.588   1.641   0.710  0.00  0.00    +0.000 C 
ATOM     31  CG2 ILE A   6       3.309   0.394   1.701  0.00  0.00    +0.000 C 
BRANCH  30  33
ATOM     32  CD1 ILE A   6       5.613   2.349   0.873  0.00  0.00    +0.000 C 
ATOM     33  CG1 ILE A   6       5.158   1.786   1.081  0.00  0.00    +0.000 C 
ENDBRANCH  30  33
ENDBRANCH   6  30
ENDBRANCH   2   6
ENDBRANCH   1   3
BRANCH   1  34
ATOM     34  N   SER A   5      -0.986  -0.013  -0.546  0.00  0.00    +0.000 N 
ATOM     35  C   VAL A   4      -0.872  -0.072   0.785  0.00  0.00    +0.000 C 
ATOM     36  O   VAL A   4       0.244  -0.235   1.348  0.00  0.00    +0.000 OA
ATOM     37  H   SER A   5      -1.883   0.067  -0.944  0.00  0.00    +0.000 HD
BRANCH  35  38
ATOM     38  CA  VAL A   4      -1.959  -0.771   1.736  0.00  0.00    +0.000 C 
BRANCH  38  39
ATOM     39  N   VAL A   4      -3.190  -0.352   0.838  0.00  0.00    +0.000 N 
ATOM     40  C   PRO A   3      -3.692   0.838   1.343  0.00  0.00    +0.000 C 
ATOM     41  O   PRO A   3      -2.938   1.844   1.162  0.00  0.00    +0.000 OA
ATOM     42  H   VAL A   4      -3.537  -0.845   0.060  0.00  0.00    +0.000 HD
BRANCH  40  43
ATOM     43  CA  PRO A   3      -5.225   1.263   1.099  0.00  0.00    +0.000 C 
ATOM     44  CB  PRO A   3      -5.444   1.570   2.700  0.00  0.00    +0.000 C 
ATOM     45  CG  PRO A   3      -6.042   0.344   3.248  0.00  0.00    +0.000 C 
ATOM     46  CD  PRO A   3      -5.329  -0.721   2.418  0.00  0.00    +0.000 C 
ATOM     47  N   PRO A   3      -5.777  -0.205   1.169  0.00  0.00    +0.000 N 
ATOM     48  C   ALA A   2      -6.720  -0.761   0.322  0.00  0.00    +0.000 C 
ATOM     49  O   ALA A   2      -6.479  -1.984   0.052  0.00  0.00    +0.000 OA
BRANCH  48  50
ATOM     50  CA  ALA A   2      -6.939  -0.076  -1.121  0.00  0.00    +0.000 C 
ATOM     51  CB  ALA A   2      -7.327   1.393  -0.492  0.00  0.00    +0.000 C 
BRANCH  50  52
ATOM     52  N   ALA A   2      -8.444  -0.525  -1.214  0.00  0.00    +0.000 N 
ATOM     53  C   ASN A   1      -9.250  -0.308  -0.090  0.00  0.00    +0.000 C 
ATOM     54  O   ASN A   1      -8.782  -0.653   0.994  0.00  0.00    +0.000 OA
ATOM     55  H   ALA A   2      -8.804  -0.941  -2.030  0.00  0.00    +0.000 HD
BRANCH  53  56
ATOM     56  CA  ASN A   1     -10.811  -0.547  -0.376  0.00  0.00    +0.000 C 
BRANCH  56  57
ATOM     57  N   ASN A   1     -10.755  -2.043   0.116  0.00  0.00    +0.000 NA
ATOM     58  H1  ASN A   1     -10.251  -2.092   1.002  0.00  0.00    +0.000 HD
ATOM     59  H2  ASN A   1     -10.274  -2.613  -0.580  0.00  0.00    +0.000 HD
ENDBRANCH  56  57
BRANCH  56  60
ATOM     60  CB  ASN A   1     -11.263  -0.001   1.110  0.00  0.00    +0.000 C 
BRANCH  60  61
ATOM     61  CG  ASN A   1     -10.858   1.430   1.113  0.00  0.00    +0.000 C 
ATOM     62  ND2 ASN A   1     -11.274   2.310   0.062  0.00  0.00    +0.000 N 
ATOM     63  OD1 ASN A   1     -10.109   1.911   2.016  0.00  0.00    +0.000 OA
ATOM     64 HD21 ASN A   1     -11.856   1.976  -0.658  0.00  0.00    +0.000 HD
ATOM     65 HD22 ASN A   1     -10.978   3.249   0.060  0.00  0.00    +0.000 HD
ENDBRANCH  60  61
ENDBRANCH  56  60
ENDBRANCH  53  56
ENDBRANCH  50  52
ENDBRANCH  48  50
ENDBRANCH  40  43
ENDBRANCH  38  39
BRANCH  38  66
ATOM     66  CB  VAL A   4      -1.775  -2.246   1.047  0.00  0.00    +0.000 C 
ATOM     67  CG1 VAL A   4      -2.378  -2.308  -0.276  0.00  0.00    +0.000 C 
ATOM     68  CG2 VAL A   4      -2.254  -3.245   2.051  0.00  0.00    +0.000 C 
ENDBRANCH  38  66
ENDBRANCH  35  38
ENDBRANCH   1  34
BRANCH   1  69
ATOM     69  CB  SER A   5      -0.126   1.343  -2.247  0.00  0.00    +0.000 C 
BRANCH  69  70
ATOM     70  OG  SER A   5      -0.679   2.194  -1.345  0.00  0.00    +0.000 OA
ATOM     71  H   SER A   5      -1.479   1.792  -0.970  0.00  0.00    +0.000 HD
ENDBRANCH  69  70
ENDBRANCH   1  69
TORSDOF 25
