REMARK  Name = 
REMARK  20 active torsions:
REMARK  status: ('A' for Active; 'I' for Inactive)
REMARK    1  A    between atoms: CE_1  and  SD_2
REMARK    2  A    between atoms: SD_2  and  CG_3
REMARK    3  A    between atoms: CG_3  and  CB_4
REMARK    4  A    between atoms: CB_4  and  CA_5
REMARK    5  A    between atoms: CA_5  and  N_6
REMARK    6  A    between atoms: CA_5  and  C_38
REMARK    7  A    between atoms: C_7  and  CA_9
REMARK    8  A    between atoms: CA_9  and  CB_10
REMARK    9  A    between atoms: CA_9  and  N_17
REMARK   10  A    between atoms: CB_10  and  CG_11
REMARK   11  A    between atoms: C_18  and  CA_20
REMARK   12  A    between atoms: CA_20  and  N_21
REMARK   13  A    between atoms: C_22  and  CA_24
REMARK   14  A    between atoms: CA_24  and  N_25
REMARK   15  A    between atoms: C_26  and  CA_28
REMARK   16  A    between atoms: CA_28  and  N_29
REMARK   17  A    between atoms: CA_28  and  CB_30
REMARK   18  A    between atoms: CB_30  and  CG_31
REMARK   19  A    between atoms: CZ_34  and  OH_35
REMARK   20  A    between atoms: C_38  and  OXT_40
REMARK                            x       y       z     vdW  Elec       q    Type
REMARK                         _______ _______ _______ _____ _____    ______ ____
ROOT
ATOM      1  N   PHE A   4       1.619  -0.599   0.279  0.00  0.00    +0.000 N 
ATOM      2  C   GLY A   3       1.301  -1.487  -0.714  0.00  0.00    +0.000 C 
ATOM      3  O   GLY A   3       2.227  -2.101  -1.294  0.00  0.00    +0.000 OA
ATOM      4  H   PHE A   4       0.984   0.113   0.522  0.00  0.00    +0.000 HD
ENDROOT
BRANCH   1   5
ATOM      5  CA  PHE A   4       3.021  -0.714   1.047  0.00  0.00    +0.000 C 
BRANCH   5   7
ATOM      6  N   MET A   5       4.307   1.264   0.411  0.00  0.00    +0.000 N 
ATOM      7  C   PHE A   4       3.798   0.070  -0.167  0.00  0.00    +0.000 C 
ATOM      8  O   PHE A   4       4.628  -0.584  -0.803  0.00  0.00    +0.000 OA
ATOM      9  H   MET A   5       4.126   1.515   1.345  0.00  0.00    +0.000 HD
BRANCH   6  10
ATOM     10  CA  MET A   5       5.193   2.174  -0.563  0.00  0.00    +0.000 C 
BRANCH  10  11
ATOM     11  C   MET A   5       4.149   1.980  -1.819  0.00  0.00    +0.000 C 
ATOM     12  O   MET A   5       3.026   2.500  -1.564  0.00  0.00    +0.000 OA
BRANCH  11  13
ATOM     13  OXT MET A   5       4.768   2.078  -3.049  0.00  0.00    +0.000 OA
ATOM     14  HXT MET A   5       5.602   1.673  -3.186  0.00  0.00    +0.000 HD
ENDBRANCH  11  13
ENDBRANCH  10  11
BRANCH  10  15
ATOM     15  CB  MET A   5       6.121   0.872  -1.064  0.00  0.00    +0.000 C 
BRANCH  15  16
ATOM     16  CG  MET A   5       7.530   1.256  -0.759  0.00  0.00    +0.000 C 
BRANCH  16  18
ATOM     17  CE  MET A   5       9.348   3.550  -0.382  0.00  0.00    +0.000 C 
ATOM     18  SD  MET A   5       7.879   2.990  -1.104  0.00  0.00    +0.000 S 
ENDBRANCH  16  18
ENDBRANCH  15  16
ENDBRANCH  10  15
ENDBRANCH   6  10
ENDBRANCH   5   7
BRANCH   5  19
ATOM     19  CB  PHE A   4       3.390  -2.257   0.481  0.00  0.00    +0.000 C 
BRANCH  19  20
ATOM     20  CG  PHE A   4       3.511  -3.052   1.744  0.00  0.00    +0.000 A 
ATOM     21  CD1 PHE A   4       3.022  -4.352   1.752  0.00  0.00    +0.000 A 
ATOM     22  CE1 PHE A   4       3.761  -5.415   2.259  0.00  0.00    +0.000 A 
ATOM     23  CZ  PHE A   4       4.973  -5.187   2.885  0.00  0.00    +0.000 A 
ATOM     24  CE2 PHE A   4       5.199  -3.869   3.263  0.00  0.00    +0.000 A 
ATOM     25  CD2 PHE A   4       4.546  -2.812   2.642  0.00  0.00    +0.000 A 
ENDBRANCH  19  20
ENDBRANCH   5  19
ENDBRANCH   1   5
BRANCH   2  26
ATOM     26  CA  GLY A   3      -0.120  -1.805  -1.055  0.00  0.00    +0.000 C 
BRANCH  26  27
ATOM     27  N   GLY A   3      -1.022  -0.730  -0.788  0.00  0.00    +0.000 N 
ATOM     28  C   GLY A   2      -1.562  -0.584   0.525  0.00  0.00    +0.000 C 
ATOM     29  O   GLY A   2      -1.917  -1.651   1.094  0.00  0.00    +0.000 OA
ATOM     30  H   GLY A   3      -1.267  -0.097  -1.501  0.00  0.00    +0.000 HD
BRANCH  28  31
ATOM     31  CA  GLY A   2      -2.179   0.735   0.848  0.00  0.00    +0.000 C 
BRANCH  31  32
ATOM     32  N   GLY A   2      -3.174   0.978  -0.197  0.00  0.00    +0.000 N 
ATOM     33  C   TYR A   1      -4.467   0.395   0.027  0.00  0.00    +0.000 C 
ATOM     34  O   TYR A   1      -4.955   0.592   1.183  0.00  0.00    +0.000 OA
ATOM     35  H   GLY A   2      -2.970   1.507  -1.001  0.00  0.00    +0.000 HD
BRANCH  33  36
ATOM     36  CA  TYR A   1      -5.479   0.969  -1.135  0.00  0.00    +0.000 C 
BRANCH  36  37
ATOM     37  N   TYR A   1      -4.761   0.078  -2.258  0.00  0.00    +0.000 NA
ATOM     38  H1  TYR A   1      -4.630  -0.871  -1.907  0.00  0.00    +0.000 HD
ATOM     39  H2  TYR A   1      -3.853   0.484  -2.486  0.00  0.00    +0.000 HD
ENDBRANCH  36  37
BRANCH  36  40
ATOM     40  CB  TYR A   1      -6.599  -0.237  -0.832  0.00  0.00    +0.000 C 
BRANCH  40  41
ATOM     41  CG  TYR A   1      -7.842   0.597  -0.784  0.00  0.00    +0.000 A 
ATOM     42  CD1 TYR A   1      -8.306   1.095   0.427  0.00  0.00    +0.000 A 
ATOM     43  CE1 TYR A   1      -8.959   2.315   0.509  0.00  0.00    +0.000 A 
ATOM     44  CZ  TYR A   1      -9.221   2.998  -0.667  0.00  0.00    +0.000 A 
ATOM     45  CE2 TYR A   1      -9.155   2.326  -1.874  0.00  0.00    +0.000 A 
ATOM     46  CD2 TYR A   1      -8.313   1.231  -1.910  0.00  0.00    +0.000 A 
BRANCH  44  47
ATOM     47  OH  TYR A   1      -9.288   4.392  -0.616  0.00  0.00    +0.000 OA
ATOM     48  HH  TYR A   1      -9.331   4.829   0.211  0.00  0.00    +0.000 HD
ENDBRANCH  44  47
ENDBRANCH  40  41
ENDBRANCH  36  40
ENDBRANCH  33  36
ENDBRANCH  31  32
ENDBRANCH  28  31
ENDBRANCH  26  27
ENDBRANCH   2  26
TORSDOF 19
