REMARK  Name = 10430040
REMARK  13 active torsions:
REMARK  status: ('A' for Active; 'I' for Inactive)
REMARK    1  A    between atoms: O_1  and  C_13
REMARK    2  A    between atoms: O_4  and  C_25
REMARK    3  A    between atoms: N_6  and  C_7
REMARK    4  A    between atoms: C_7  and  C_8
REMARK    5  A    between atoms: C_7  and  C_9
REMARK    6  A    between atoms: C_8  and  C_10
REMARK    7  A    between atoms: C_9  and  C_11
REMARK    8  A    between atoms: C_10  and  C_12
REMARK    9  A    between atoms: C_10  and  C_13
REMARK   10  A    between atoms: C_14  and  C_17
REMARK   11  A    between atoms: C_17  and  C_21
REMARK   12  A    between atoms: C_18  and  C_22
REMARK   13  A    between atoms: C_21  and  C_25
REMARK                            x       y       z     vdW  Elec       q    Type
REMARK                         _______ _______ _______ _____ _____    ______ ____
ROOT
ATOM      1  C   UNL     1      -1.813   1.590   0.684  0.00  0.00    +0.000 C 
ENDROOT
BRANCH   1   3
ATOM      2  O   UNL     1      -1.639  -0.664  -1.121  0.00  0.00    +0.000 OA
ATOM      3  N   UNL     1      -2.111   0.203   0.982  0.00  0.00    +0.000 N 
ATOM      4  C   UNL     1      -1.996  -0.810   0.045  0.00  0.00    +0.000 C 
ATOM      5  H   UNL     1      -2.417  -0.025   1.924  0.00  0.00    +0.000 HD
BRANCH   4   6
ATOM      6  C   UNL     1      -2.373  -2.156   0.636  0.00  0.00    +0.000 C 
BRANCH   6   7
ATOM      7  C   UNL     1      -2.256  -3.291  -0.376  0.00  0.00    +0.000 C 
BRANCH   7   9
ATOM      8  O   UNL     1      -2.988  -4.808   1.380  0.00  0.00    +0.000 OA
ATOM      9  C   UNL     1      -2.641  -4.624   0.222  0.00  0.00    +0.000 C 
BRANCH   9  10
ATOM     10  O   UNL     1      -2.558  -5.622  -0.696  0.00  0.00    +0.000 OA
ATOM     11  H   UNL     1      -2.807  -6.491  -0.315  0.00  0.00    +0.000 HD
ENDBRANCH   9  10
ENDBRANCH   7   9
ENDBRANCH   6   7
ENDBRANCH   4   6
ENDBRANCH   1   3
BRANCH   1  12
ATOM     12  C   UNL     1      -3.104   2.417   0.856  0.00  0.00    +0.000 C 
BRANCH  12  13
ATOM     13  C   UNL     1      -4.310   1.923   0.036  0.00  0.00    +0.000 C 
ATOM     14  C   UNL     1      -5.546   2.768   0.338  0.00  0.00    +0.000 C 
BRANCH  13  16
ATOM     15  O   UNL     1      -3.299   2.804  -1.997  0.00  0.00    +0.000 OA
ATOM     16  C   UNL     1      -4.039   1.992  -1.457  0.00  0.00    +0.000 C 
BRANCH  16  17
ATOM     17  O   UNL     1      -4.740   1.059  -2.152  0.00  0.00    +0.000 OA
ATOM     18  H   UNL     1      -4.570   1.118  -3.116  0.00  0.00    +0.000 HD
ENDBRANCH  16  17
ENDBRANCH  13  16
ENDBRANCH  12  13
ENDBRANCH   1  12
BRANCH   1  19
ATOM     19  C   UNL     1      -0.662   2.093   1.573  0.00  0.00    +0.000 C 
BRANCH  19  20
ATOM     20  C   UNL     1       0.692   1.592   1.126  0.00  0.00    +0.000 A 
ATOM     21  C   UNL     1       1.193   0.391   1.630  0.00  0.00    +0.000 A 
ATOM     22  C   UNL     1       1.442   2.331   0.210  0.00  0.00    +0.000 A 
ATOM     23  C   UNL     1       3.192   0.667   0.301  0.00  0.00    +0.000 A 
ATOM     24  C   UNL     1       2.442  -0.071   1.217  0.00  0.00    +0.000 A 
ATOM     25  C   UNL     1       2.691   1.868  -0.203  0.00  0.00    +0.000 A 
BRANCH  23  26
ATOM     26  C   UNL     1       4.487   0.188  -0.127  0.00  0.00    +0.000 A 
ATOM     27  C   UNL     1       5.634   0.555   0.577  0.00  0.00    +0.000 A 
ATOM     28  C   UNL     1       4.590  -0.643  -1.243  0.00  0.00    +0.000 A 
ATOM     29  C   UNL     1       6.884   0.092   0.165  0.00  0.00    +0.000 A 
ATOM     30  C   UNL     1       5.840  -1.106  -1.655  0.00  0.00    +0.000 A 
ATOM     31  C   UNL     1       6.987  -0.738  -0.951  0.00  0.00    +0.000 A 
ENDBRANCH  23  26
ENDBRANCH  19  20
ENDBRANCH   1  19
TORSDOF 12
