REMARK  Name = 
REMARK  2 active torsions:
REMARK  status: ('A' for Active; 'I' for Inactive)
REMARK    1  A    between atoms: C_1  and  C_2
REMARK    2  A    between atoms: C_20  and  C_21
REMARK                            x       y       z     vdW  Elec       q    Type
REMARK                         _______ _______ _______ _____ _____    ______ ____
ROOT
ATOM      1  C   UNL     1       4.176   2.097  -0.594  0.00  0.00    +0.000 C 
ATOM      2  C   UNL     1       3.570   0.896  -0.088  0.00  0.00    +0.000 A 
ATOM      3  C   UNL     1       4.182   0.107   0.877  0.00  0.00    +0.000 A 
ATOM      4  C   UNL     1       3.383  -0.536   1.804  0.00  0.00    +0.000 A 
ATOM      5  C   UNL     1       2.134  -0.935   1.394  0.00  0.00    +0.000 A 
ATOM      6  C   UNL     1       1.640  -0.436   0.196  0.00  0.00    +0.000 A 
ATOM      7  C   UNL     1       2.340   0.503  -0.553  0.00  0.00    +0.000 A 
ATOM      8  C   UNL     1       1.728   1.272  -1.535  0.00  0.00    +0.000 A 
ATOM      9  C   UNL     1       0.355   1.219  -1.663  0.00  0.00    +0.000 A 
ATOM     10  C   UNL     1      -0.393   0.443  -0.797  0.00  0.00    +0.000 A 
ATOM     11  C   UNL     1       0.292  -0.552  -0.121  0.00  0.00    +0.000 A 
ATOM     12  C   UNL     1      -0.441  -1.700   0.422  0.00  0.00    +0.000 C 
ATOM     13  O   UNL     1       0.025  -2.331   1.417  0.00  0.00    +0.000 OA
ATOM     14  C   UNL     1      -1.905  -1.580   0.380  0.00  0.00    +0.000 C 
ATOM     15  O   UNL     1      -2.563  -2.647   0.523  0.00  0.00    +0.000 OA
ATOM     16  C   UNL     1      -2.504  -0.445  -0.314  0.00  0.00    +0.000 C 
ATOM     17  C   UNL     1      -1.849   0.599  -0.688  0.00  0.00    +0.000 C 
ATOM     18  O   UNL     1      -2.578   1.765  -0.644  0.00  0.00    +0.000 OA
ATOM     19  C   UNL     1      -3.850   1.352  -1.104  0.00  0.00    +0.000 C 
ATOM     20  C   UNL     1      -4.046   0.021  -0.140  0.00  0.00    +0.000 C 
ATOM     21  C   UNL     1      -3.697   0.887   1.229  0.00  0.00    +0.000 C 
ENDROOT
TORSDOF 0
