REMARK  Name = 
REMARK  6 active torsions:
REMARK  status: ('A' for Active; 'I' for Inactive)
REMARK    1  A    between atoms: C_1  and  C_2
REMARK    2  A    between atoms: C_15  and  C_16
REMARK    3  A    between atoms: C_20  and  C_21
REMARK    4  A    between atoms: C_21  and  C_23
REMARK    5  A    between atoms: C_23  and  N_24
REMARK    6  A    between atoms: N_27  and  C_28
REMARK                            x       y       z     vdW  Elec       q    Type
REMARK                         _______ _______ _______ _____ _____    ______ ____
ROOT
ATOM      1  C   UNL     1       0.976  -0.839  -0.777  0.00  0.00    +0.000 C 
ENDROOT
BRANCH   1   2
ATOM      2  N   UNL     1      -0.406  -0.673  -0.693  0.00  0.00    +0.000 NA
ATOM      3  C   UNL     1      -1.167  -0.513  -1.863  0.00  0.00    +0.000 C 
ATOM      4  C   UNL     1      -2.270  -1.567  -1.857  0.00  0.00    +0.000 C 
ATOM      5  N   UNL     1      -2.925  -1.508  -0.554  0.00  0.00    +0.000 N 
ATOM      6  C   UNL     1      -2.120  -1.641   0.652  0.00  0.00    +0.000 C 
ATOM      7  C   UNL     1      -1.035  -0.583   0.557  0.00  0.00    +0.000 C 
BRANCH   5   8
ATOM      8  C   UNL     1      -4.125  -0.743  -0.443  0.00  0.00    +0.000 A 
ATOM      9  C   UNL     1      -3.967   0.634  -0.509  0.00  0.00    +0.000 A 
ATOM     10  C   UNL     1      -4.908   1.465   0.069  0.00  0.00    +0.000 A 
ATOM     11  N   UNL     1      -5.002   2.828  -0.374  0.00  0.00    +0.000 N 
ATOM     12  C   UNL     1      -5.815   3.148  -1.548  0.00  0.00    +0.000 C 
ATOM     13  C   UNL     1      -7.165   3.500  -0.935  0.00  0.00    +0.000 C 
ATOM     14  C   UNL     1      -6.896   3.705   0.551  0.00  0.00    +0.000 C 
ATOM     15  C   UNL     1      -5.380   3.870   0.580  0.00  0.00    +0.000 C 
ATOM     16  N   UNL     1      -5.956   0.845   0.664  0.00  0.00    +0.000 NA
ATOM     17  C   UNL     1      -6.245  -0.455   0.492  0.00  0.00    +0.000 A 
ATOM     18  N   UNL     1      -7.592  -0.932   0.390  0.00  0.00    +0.000 N 
ATOM     19  C   UNL     1      -8.509  -0.502  -0.662  0.00  0.00    +0.000 C 
ATOM     20  C   UNL     1      -9.867  -0.933  -0.191  0.00  0.00    +0.000 C 
ATOM     21  C   UNL     1      -9.553  -2.198   0.569  0.00  0.00    +0.000 C 
ATOM     22  C   UNL     1      -8.101  -2.158   0.939  0.00  0.00    +0.000 C 
ATOM     23  N   UNL     1      -5.202  -1.262   0.178  0.00  0.00    +0.000 NA
ENDBRANCH   5   8
ENDBRANCH   1   2
BRANCH   1  24
ATOM     24  C   UNL     1       1.508  -2.121  -0.208  0.00  0.00    +0.000 C 
ATOM     25  O   UNL     1       0.713  -2.930   0.268  0.00  0.00    +0.000 OA
BRANCH  24  45
ATOM     26  C   UNL     1       3.827  -2.415  -1.230  0.00  0.00    +0.000 C 
ATOM     27  C   UNL     1       3.727  -1.350  -0.325  0.00  0.00    +0.000 C 
ATOM     28  C   UNL     1       3.549   0.030  -0.746  0.00  0.00    +0.000 C 
ATOM     29  C   UNL     1       4.865   0.414  -1.364  0.00  0.00    +0.000 C 
ATOM     30  C   UNL     1       5.965   0.051  -0.738  0.00  0.00    +0.000 C 
ATOM     31  C   UNL     1       6.126  -1.496  -0.377  0.00  0.00    +0.000 C 
ATOM     32  C   UNL     1       7.267  -1.284   0.767  0.00  0.00    +0.000 C 
ATOM     33  C   UNL     1       6.892  -0.072   1.566  0.00  0.00    +0.000 C 
ATOM     34  C   UNL     1       7.186   1.204   0.819  0.00  0.00    +0.000 C 
ATOM     35  C   UNL     1       6.435   2.240   1.199  0.00  0.00    +0.000 C 
ATOM     36  C   UNL     1       5.879   3.220   0.295  0.00  0.00    +0.000 C 
ATOM     37  O   UNL     1       4.958   4.029   0.586  0.00  0.00    +0.000 OA
ATOM     38  C   UNL     1       6.253   3.161  -1.124  0.00  0.00    +0.000 C 
ATOM     39  C   UNL     1       6.949   2.106  -1.479  0.00  0.00    +0.000 C 
ATOM     40  C   UNL     1       7.159   0.923  -0.658  0.00  0.00    +0.000 C 
ATOM     41  C   UNL     1       8.422   0.260  -1.129  0.00  0.00    +0.000 C 
ATOM     42  C   UNL     1       4.893  -1.431   0.794  0.00  0.00    +0.000 C 
ATOM     43  C   UNL     1       4.733  -3.040   0.849  0.00  0.00    +0.000 C 
ATOM     44  C   UNL     1       3.261  -3.254   0.893  0.00  0.00    +0.000 C 
ATOM     45  C   UNL     1       2.662  -1.731   0.854  0.00  0.00    +0.000 C 
ENDBRANCH  24  45
ENDBRANCH   1  24
TORSDOF 4
