REMARK  Name = 
REMARK  9 active torsions:
REMARK  status: ('A' for Active; 'I' for Inactive)
REMARK    1  A    between atoms: C_1  and  C_2
REMARK    2  A    between atoms: C_3  and  O_4
REMARK    3  A    between atoms: C_13  and  C_14
REMARK    4  A    between atoms: C_17  and  C_18
REMARK    5  A    between atoms: C_21  and  C_22
REMARK    6  A    between atoms: C_21  and  C_23
REMARK    7  A    between atoms: C_23  and  O_25
REMARK    8  A    between atoms: C_28  and  C_29
REMARK    9  A    between atoms: C_32  and  C_33
REMARK                            x       y       z     vdW  Elec       q    Type
REMARK                         _______ _______ _______ _____ _____    ______ ____
ROOT
ATOM      1  C   UNL     1      -4.243   2.705  -1.594  0.00  0.00    +0.000 C 
ATOM      2  C   UNL     1      -4.278   1.677  -0.581  0.00  0.00    +0.000 C 
ATOM      3  C   UNL     1      -5.435   1.346  -0.007  0.00  0.00    +0.000 C 
ATOM      4  C   UNL     1      -5.418   0.167   0.869  0.00  0.00    +0.000 C 
ATOM      5  O   UNL     1      -6.483  -0.479   1.025  0.00  0.00    +0.000 OA
ATOM      6  C   UNL     1      -4.131  -0.259   1.416  0.00  0.00    +0.000 C 
ATOM      7  C   UNL     1      -2.962   0.108   0.888  0.00  0.00    +0.000 C 
ATOM      8  C   UNL     1      -3.042   0.924  -0.332  0.00  0.00    +0.000 C 
ATOM      9  C   UNL     1      -2.211   0.738  -1.360  0.00  0.00    +0.000 C 
ATOM     10  C   UNL     1      -1.300  -0.412  -1.300  0.00  0.00    +0.000 C 
ATOM     11  C   UNL     1      -1.150  -1.147  -0.196  0.00  0.00    +0.000 C 
ATOM     12  C   UNL     1      -1.731  -0.711   1.115  0.00  0.00    +0.000 C 
ATOM     13  C   UNL     1      -2.153  -1.966   1.870  0.00  0.00    +0.000 C 
ATOM     14  C   UNL     1      -0.755   0.030   1.969  0.00  0.00    +0.000 C 
ATOM     15  C   UNL     1       0.643  -0.487   1.942  0.00  0.00    +0.000 C 
ATOM     16  C   UNL     1       1.030  -0.581   0.475  0.00  0.00    +0.000 C 
ATOM     17  C   UNL     1       0.940   0.707  -0.221  0.00  0.00    +0.000 C 
ATOM     18  C   UNL     1       2.601  -1.068   0.461  0.00  0.00    +0.000 C 
ATOM     19  C   UNL     1       3.118   0.424   0.958  0.00  0.00    +0.000 C 
ATOM     20  C   UNL     1       4.588   0.397   0.664  0.00  0.00    +0.000 C 
ATOM     21  C   UNL     1       5.323  -0.722   1.330  0.00  0.00    +0.000 C 
ATOM     22  C   UNL     1       4.807   0.441  -0.845  0.00  0.00    +0.000 C 
ATOM     23  C   UNL     1       3.388   0.504  -1.412  0.00  0.00    +0.000 C 
ATOM     24  C   UNL     1       2.801  -0.798  -1.150  0.00  0.00    +0.000 C 
ATOM     25  C   UNL     1       3.899  -1.834  -1.418  0.00  0.00    +0.000 C 
ATOM     26  C   UNL     1       1.640  -1.239  -1.905  0.00  0.00    +0.000 C 
ATOM     27  C   UNL     1       0.769  -2.285  -1.319  0.00  0.00    +0.000 C 
ATOM     28  C   UNL     1       0.225  -1.721  -0.049  0.00  0.00    +0.000 C 
ATOM     29  C   UNL     1       0.260  -2.836   0.977  0.00  0.00    +0.000 C 
ENDROOT
BRANCH   3  30
ATOM     30  O   UNL     1      -6.623   2.002  -0.338  0.00  0.00    +0.000 OA
ATOM     31  H   UNL     1      -6.604   2.752  -0.899  0.00  0.00    +0.000 HD
ENDBRANCH   3  30
BRANCH  20  32
ATOM     32  C   UNL     1       5.159   1.689   1.153  0.00  0.00    +0.000 C 
ATOM     33  O   UNL     1       6.370   1.871   0.813  0.00  0.00    +0.000 OA
BRANCH  32  34
ATOM     34  O   UNL     1       4.354   2.816   0.950  0.00  0.00    +0.000 OA
ATOM     35  H   UNL     1       3.444   2.787   1.169  0.00  0.00    +0.000 HD
ENDBRANCH  32  34
ENDBRANCH  20  32
TORSDOF 3
