REMARK  Name = 4630909
REMARK  3 active torsions:
REMARK  status: ('A' for Active; 'I' for Inactive)
REMARK    1  A    between atoms: N_6  and  C_12
REMARK    2  A    between atoms: N_8  and  C_23
REMARK    3  A    between atoms: C_17  and  C_21
REMARK                            x       y       z     vdW  Elec       q    Type
REMARK                         _______ _______ _______ _____ _____    ______ ____
ROOT
ATOM      1  O   UNL     1      -2.056  -3.941   0.644  0.00  0.00    +0.000 OA
ATOM      2  N   UNL     1      -1.613  -1.697   0.120  0.00  0.00    +0.000 N 
ATOM      3  N   UNL     1       0.104  -3.282   0.531  0.00  0.00    +0.000 N 
ATOM      4  C   UNL     1       0.017   1.711  -0.047  0.00  0.00    +0.000 A 
ATOM      5  C   UNL     1       0.725  -0.985  -0.000  0.00  0.00    +0.000 A 
ATOM      6  C   UNL     1      -0.636  -0.644   0.022  0.00  0.00    +0.000 A 
ATOM      7  C   UNL     1       1.712   0.010  -0.087  0.00  0.00    +0.000 A 
ATOM      8  C   UNL     1      -0.970   0.723   0.026  0.00  0.00    +0.000 A 
ATOM      9  C   UNL     1       1.358   1.354  -0.111  0.00  0.00    +0.000 A 
ATOM     10  C   UNL     1       1.134  -2.420   0.002  0.00  0.00    +0.000 C 
ATOM     11  C   UNL     1      -1.253  -3.023   0.448  0.00  0.00    +0.000 C 
ATOM     12  H   UNL     1       0.379  -4.223   0.796  0.00  0.00    +0.000 HD
ENDROOT
BRANCH   2  15
ATOM     13 CL   UNL     1      -2.587  -1.924  -2.741  0.00  0.00    +0.000 Cl
ATOM     14 CL   UNL     1      -3.170  -0.888   2.590  0.00  0.00    +0.000 Cl
ATOM     15  C   UNL     1      -2.996  -1.381  -0.093  0.00  0.00    +0.000 A 
ATOM     16  C   UNL     1      -3.539  -1.456  -1.375  0.00  0.00    +0.000 A 
ATOM     17  C   UNL     1      -3.797  -0.999   0.983  0.00  0.00    +0.000 A 
ATOM     18  C   UNL     1      -4.884  -1.150  -1.582  0.00  0.00    +0.000 A 
ATOM     19  C   UNL     1      -5.142  -0.693   0.776  0.00  0.00    +0.000 A 
ATOM     20  C   UNL     1      -5.686  -0.768  -0.506  0.00  0.00    +0.000 A 
ENDBRANCH   2  15
BRANCH   7  23
ATOM     21  F   UNL     1       3.316  -0.241   2.206  0.00  0.00    +0.000 F 
ATOM     22  F   UNL     1       7.138  -1.239  -0.394  0.00  0.00    +0.000 F 
ATOM     23  C   UNL     1       3.125  -0.316  -0.163  0.00  0.00    +0.000 A 
ATOM     24  C   UNL     1       3.877  -0.430   1.003  0.00  0.00    +0.000 A 
ATOM     25  C   UNL     1       3.720  -0.512  -1.406  0.00  0.00    +0.000 A 
ATOM     26  C   UNL     1       5.234  -0.742   0.925  0.00  0.00    +0.000 A 
ATOM     27  C   UNL     1       5.077  -0.824  -1.484  0.00  0.00    +0.000 A 
ATOM     28  C   UNL     1       5.834  -0.939  -0.319  0.00  0.00    +0.000 A 
ENDBRANCH   7  23
BRANCH   4  29
ATOM     29  N   UNL     1      -0.348   3.062  -0.056  0.00  0.00    +0.000 N 
ATOM     30  N   UNL     1      -0.936   5.849   0.123  0.00  0.00    +0.000 NA
ATOM     31  C   UNL     1      -1.093   3.584   1.097  0.00  0.00    +0.000 C 
ATOM     32  C   UNL     1       0.486   4.036  -0.769  0.00  0.00    +0.000 C 
ATOM     33  C   UNL     1      -1.837   4.864   0.718  0.00  0.00    +0.000 C 
ATOM     34  C   UNL     1      -0.315   5.300  -1.081  0.00  0.00    +0.000 C 
ATOM     35  H   UNL     1      -1.466   6.685  -0.123  0.00  0.00    +0.000 HD
ENDBRANCH   4  29
TORSDOF 3
