REMARK  Name = 101360807
REMARK  13 active torsions:
REMARK  status: ('A' for Active; 'I' for Inactive)
REMARK    1  A    between atoms: N_1  and  C_16
REMARK    2  A    between atoms: N_2  and  C_15
REMARK    3  A    between atoms: N_2  and  C_29
REMARK    4  A    between atoms: N_4  and  C_30
REMARK    5  A    between atoms: N_6  and  C_39
REMARK    6  A    between atoms: C_16  and  C_17
REMARK    7  A    between atoms: C_17  and  C_18
REMARK    8  A    between atoms: C_18  and  C_19
REMARK    9  A    between atoms: C_19  and  C_23
REMARK   10  A    between atoms: C_20  and  C_32
REMARK   11  A    between atoms: C_23  and  C_28
REMARK   12  A    between atoms: C_28  and  C_31
REMARK   13  A    between atoms: C_29  and  C_30
REMARK                            x       y       z     vdW  Elec       q    Type
REMARK                         _______ _______ _______ _____ _____    ______ ____
ROOT
ATOM      1  C   UNL     1      -1.024   2.331   0.256  0.00  0.00    +0.000 C 
ENDROOT
BRANCH   1   2
ATOM      2  C   UNL     1      -1.314   0.995  -0.424  0.00  0.00    +0.000 C 
BRANCH   2   3
ATOM      3  N   UNL     1      -2.337   0.233   0.322  0.00  0.00    +0.000 N 
ATOM      4  N   UNL     1       0.949  -1.460   3.472  0.00  0.00    +0.000 NA
ATOM      5  C   UNL     1      -3.666   0.139  -0.150  0.00  0.00    +0.000 A 
ATOM      6  C   UNL     1      -1.965  -0.457   1.504  0.00  0.00    +0.000 A 
ATOM      7  C   UNL     1      -4.652  -0.474   0.554  0.00  0.00    +0.000 A 
ATOM      8  C   UNL     1      -3.039  -1.060   2.346  0.00  0.00    +0.000 A 
ATOM      9  C   UNL     1      -4.327  -1.058   1.895  0.00  0.00    +0.000 A 
ATOM     10  C   UNL     1      -0.684  -0.611   1.908  0.00  0.00    +0.000 A 
ATOM     11  C   UNL     1      -6.037  -0.602   0.060  0.00  0.00    +0.000 A 
ATOM     12  C   UNL     1      -5.456  -1.626   2.659  0.00  0.00    +0.000 A 
ATOM     13  C   UNL     1      -2.667  -1.634   3.644  0.00  0.00    +0.000 A 
ATOM     14  C   UNL     1      -6.986  -1.169   0.823  0.00  0.00    +0.000 A 
ATOM     15  C   UNL     1      -6.697  -1.671   2.147  0.00  0.00    +0.000 A 
ATOM     16  C   UNL     1      -0.299  -1.300   3.166  0.00  0.00    +0.000 A 
ATOM     17  C   UNL     1      -1.397  -1.764   4.039  0.00  0.00    +0.000 A 
ATOM     18  H   UNL     1       1.043  -1.946   4.370  0.00  0.00    +0.000 HD
BRANCH   5  19
ATOM     19  C   UNL     1      -3.964   0.712  -1.486  0.00  0.00    +0.000 A 
ATOM     20  C   UNL     1      -4.391   2.035  -1.598  0.00  0.00    +0.000 A 
ATOM     21  C   UNL     1      -3.818  -0.073  -2.630  0.00  0.00    +0.000 A 
ATOM     22  C   UNL     1      -4.671   2.574  -2.853  0.00  0.00    +0.000 A 
ATOM     23  C   UNL     1      -4.099   0.466  -3.886  0.00  0.00    +0.000 A 
ATOM     24  C   UNL     1      -4.526   1.790  -3.997  0.00  0.00    +0.000 A 
ENDBRANCH   5  19
BRANCH  14  25
ATOM     25  N   UNL     1      -8.298  -1.263   0.298  0.00  0.00    +0.000 NA
ATOM     26  H   UNL     1      -8.319  -1.793  -0.584  0.00  0.00    +0.000 HD
ATOM     27  H   UNL     1      -8.698  -0.335   0.105  0.00  0.00    +0.000 HD
ATOM     28  H   UNL     1      -8.947  -1.737   0.942  0.00  0.00    +0.000 HD
ENDBRANCH  14  25
ENDBRANCH   2   3
ENDBRANCH   1   2
BRANCH   1  29
ATOM     29  C   UNL     1       0.036   3.152  -0.487  0.00  0.00    +0.000 C 
BRANCH  29  30
ATOM     30  C   UNL     1       0.348   4.452   0.258  0.00  0.00    +0.000 C 
BRANCH  30  31
ATOM     31  C   UNL     1       1.426   5.303  -0.423  0.00  0.00    +0.000 C 
BRANCH  31  32
ATOM     32  C   UNL     1       2.798   4.634  -0.567  0.00  0.00    +0.000 C 
BRANCH  32  36
ATOM     33  N   UNL     1       4.300   3.238   0.923  0.00  0.00    +0.000 N 
ATOM     34  N   UNL     1       4.733   3.158   2.191  0.00  0.00    +0.000 NA
ATOM     35  N   UNL     1       4.171   4.157   2.864  0.00  0.00    +0.000 NA
ATOM     36  C   UNL     1       3.450   4.287   0.748  0.00  0.00    +0.000 A 
ATOM     37  C   UNL     1       3.382   4.857   1.994  0.00  0.00    +0.000 A 
BRANCH  33  38
ATOM     38  C   UNL     1       4.743   2.277  -0.056  0.00  0.00    +0.000 C 
BRANCH  38  39
ATOM     39  C   UNL     1       4.014   0.938   0.045  0.00  0.00    +0.000 C 
BRANCH  39  40
ATOM     40  N   UNL     1       4.461   0.026  -0.983  0.00  0.00    +0.000 N 
ATOM     41  H   UNL     1       5.443   0.107  -1.233  0.00  0.00    +0.000 HD
BRANCH  40  49
ATOM     42  N   UNL     1       2.856  -3.776  -1.509  0.00  0.00    +0.000 NA
ATOM     43  C   UNL     1       4.493  -2.319  -0.487  0.00  0.00    +0.000 A 
ATOM     44  C   UNL     1       5.638  -2.100   0.463  0.00  0.00    +0.000 C 
ATOM     45  C   UNL     1       6.353  -3.394   0.850  0.00  0.00    +0.000 C 
ATOM     46  C   UNL     1       5.343  -4.479   1.202  0.00  0.00    +0.000 C 
ATOM     47  C   UNL     1       4.466  -4.798  -0.006  0.00  0.00    +0.000 C 
ATOM     48  C   UNL     1       3.910  -3.570  -0.678  0.00  0.00    +0.000 A 
ATOM     49  C   UNL     1       3.931  -1.240  -1.169  0.00  0.00    +0.000 A 
ATOM     50  C   UNL     1       2.840  -1.427  -2.026  0.00  0.00    +0.000 A 
ATOM     51  C   UNL     1       2.327  -2.729  -2.169  0.00  0.00    +0.000 A 
ATOM     52  C   UNL     1       2.261  -0.355  -2.728  0.00  0.00    +0.000 A 
ATOM     53  C   UNL     1       1.243  -2.918  -3.021  0.00  0.00    +0.000 A 
ATOM     54  C   UNL     1       1.177  -0.571  -3.574  0.00  0.00    +0.000 A 
ATOM     55  C   UNL     1       0.667  -1.854  -3.721  0.00  0.00    +0.000 A 
ENDBRANCH  40  49
ENDBRANCH  39  40
ENDBRANCH  38  39
ENDBRANCH  33  38
ENDBRANCH  32  36
ENDBRANCH  31  32
ENDBRANCH  30  31
ENDBRANCH  29  30
ENDBRANCH   1  29
TORSDOF 13
