REMARK  Name = 11973736
REMARK  10 active torsions:
REMARK  status: ('A' for Active; 'I' for Inactive)
REMARK    1  A    between atoms: O_2  and  C_15
REMARK    2  A    between atoms: O_2  and  C_16
REMARK    3  A    between atoms: O_3  and  C_33
REMARK    4  A    between atoms: O_3  and  C_36
REMARK    5  A    between atoms: N_5  and  C_14
REMARK    6  A    between atoms: N_6  and  C_19
REMARK    7  A    between atoms: C_14  and  C_15
REMARK    8  A    between atoms: C_22  and  C_27
REMARK    9  A    between atoms: C_23  and  C_30
REMARK   10  A    between atoms: C_36  and  C_37
REMARK                            x       y       z     vdW  Elec       q    Type
REMARK                         _______ _______ _______ _____ _____    ______ ____
ROOT
ATOM      1  N   UNL     1      -3.250   3.218  -1.525  0.00  0.00    +0.000 N 
ATOM      2  N   UNL     1      -1.629   1.996  -0.353  0.00  0.00    +0.000 NA
ATOM      3  N   UNL     1       0.261   3.807  -1.185  0.00  0.00    +0.000 NA
ATOM      4  N   UNL     1      -1.026   3.961  -1.561  0.00  0.00    +0.000 NA
ATOM      5  C   UNL     1       2.323   1.531   0.795  0.00  0.00    +0.000 A 
ATOM      6  C   UNL     1       0.038   0.785   0.820  0.00  0.00    +0.000 A 
ATOM      7  C   UNL     1      -0.349   1.853   0.013  0.00  0.00    +0.000 A 
ATOM      8  C   UNL     1       0.620   2.773  -0.407  0.00  0.00    +0.000 A 
ATOM      9  C   UNL     1       1.366   0.618   1.213  0.00  0.00    +0.000 A 
ATOM     10  C   UNL     1       1.944   2.602  -0.012  0.00  0.00    +0.000 A 
ATOM     11  C   UNL     1      -1.909   3.050  -1.129  0.00  0.00    +0.000 A 
ATOM     12  C   UNL     1      -0.971  -0.216   1.288  0.00  0.00    +0.000 C 
ATOM     13  H   UNL     1      -3.364   3.954  -2.216  0.00  0.00    +0.000 HD
ENDROOT
BRANCH   5  15
ATOM     14 CL   UNL     1       3.208   2.890   3.417  0.00  0.00    +0.000 Cl
ATOM     15  C   UNL     1       3.704   1.372   1.193  0.00  0.00    +0.000 A 
ATOM     16  C   UNL     1       4.545   0.620   0.373  0.00  0.00    +0.000 A 
ATOM     17  C   UNL     1       4.203   1.947   2.362  0.00  0.00    +0.000 A 
ATOM     18  C   UNL     1       5.884   0.443   0.721  0.00  0.00    +0.000 A 
ATOM     19  C   UNL     1       5.543   1.770   2.710  0.00  0.00    +0.000 A 
ATOM     20  C   UNL     1       6.383   1.018   1.890  0.00  0.00    +0.000 A 
BRANCH  18  21
ATOM     21  O   UNL     1       6.704  -0.291  -0.080  0.00  0.00    +0.000 OA
BRANCH  21  23
ATOM     22  O   UNL     1       6.129  -2.195   1.137  0.00  0.00    +0.000 OA
ATOM     23  C   UNL     1       6.744  -1.653   0.230  0.00  0.00    +0.000 C 
BRANCH  23  24
ATOM     24  C   UNL     1       7.657  -2.384  -0.684  0.00  0.00    +0.000 A 
ATOM     25  C   UNL     1       7.846  -3.757  -0.529  0.00  0.00    +0.000 A 
ATOM     26  C   UNL     1       8.326  -1.698  -1.697  0.00  0.00    +0.000 A 
ATOM     27  C   UNL     1       8.705  -4.444  -1.387  0.00  0.00    +0.000 A 
ATOM     28  C   UNL     1       9.184  -2.385  -2.556  0.00  0.00    +0.000 A 
ATOM     29  C   UNL     1       9.374  -3.758  -2.401  0.00  0.00    +0.000 A 
ENDBRANCH  23  24
ENDBRANCH  21  23
ENDBRANCH  18  21
ENDBRANCH   5  15
BRANCH   1  33
ATOM     30  C   UNL     1      -6.740   1.010  -0.760  0.00  0.00    +0.000 A 
ATOM     31  C   UNL     1      -5.711   1.035   0.180  0.00  0.00    +0.000 A 
ATOM     32  C   UNL     1      -6.611   1.718  -1.955  0.00  0.00    +0.000 A 
ATOM     33  C   UNL     1      -4.422   2.476  -1.268  0.00  0.00    +0.000 A 
ATOM     34  C   UNL     1      -4.551   1.768  -0.074  0.00  0.00    +0.000 A 
ATOM     35  C   UNL     1      -5.452   2.452  -2.209  0.00  0.00    +0.000 A 
BRANCH  30  36
ATOM     36  O   UNL     1      -7.880   0.290  -0.511  0.00  0.00    +0.000 OA
BRANCH  36  37
ATOM     37  C   UNL     1      -7.741  -0.867   0.303  0.00  0.00    +0.000 C 
BRANCH  37  38
ATOM     38  C   UNL     1      -8.807  -1.875  -0.095  0.00  0.00    +0.000 C 
BRANCH  38  39
ATOM     39  N   UNL     1      -8.693  -3.087   0.704  0.00  0.00    +0.000 NA
ATOM     40  C   UNL     1      -7.637  -3.976   0.220  0.00  0.00    +0.000 C 
ATOM     41  C   UNL     1      -9.912  -3.893   0.672  0.00  0.00    +0.000 C 
ATOM     42  C   UNL     1      -7.951  -5.289   0.921  0.00  0.00    +0.000 C 
ATOM     43  C   UNL     1      -9.447  -5.237   1.215  0.00  0.00    +0.000 C 
ENDBRANCH  38  39
ENDBRANCH  37  38
ENDBRANCH  36  37
ENDBRANCH  30  36
ENDBRANCH   1  33
TORSDOF 9
