REMARK  Name = 11633167
REMARK  8 active torsions:
REMARK  status: ('A' for Active; 'I' for Inactive)
REMARK    1  A    between atoms: O_1  and  C_13
REMARK    2  A    between atoms: O_1  and  C_23
REMARK    3  A    between atoms: N_3  and  C_12
REMARK    4  A    between atoms: N_3  and  C_22
REMARK    5  A    between atoms: N_6  and  C_24
REMARK    6  A    between atoms: C_7  and  C_9
REMARK    7  A    between atoms: C_8  and  C_12
REMARK    8  A    between atoms: C_23  and  C_25
REMARK                            x       y       z     vdW  Elec       q    Type
REMARK                         _______ _______ _______ _____ _____    ______ ____
ROOT
ATOM      1  C   UNL     1       2.408   1.126   0.261  0.00  0.00    +0.000 A 
ATOM      2  C   UNL     1       0.133   0.509   0.786  0.00  0.00    +0.000 A 
ATOM      3  C   UNL     1       1.481   0.168   0.670  0.00  0.00    +0.000 A 
ATOM      4  C   UNL     1      -0.286   1.806   0.493  0.00  0.00    +0.000 A 
ATOM      5  C   UNL     1       1.990   2.423  -0.032  0.00  0.00    +0.000 A 
ATOM      6  C   UNL     1       0.642   2.764   0.085  0.00  0.00    +0.000 A 
ENDROOT
BRANCH   1   8
ATOM      7  N   UNL     1       6.149  -2.023  -0.607  0.00  0.00    +0.000 N 
ATOM      8  C   UNL     1       3.807   0.773   0.140  0.00  0.00    +0.000 A 
ATOM      9  C   UNL     1       5.520  -0.838  -0.299  0.00  0.00    +0.000 A 
ATOM     10  C   UNL     1       6.520   0.115  -0.089  0.00  0.00    +0.000 A 
ATOM     11  C   UNL     1       4.157  -0.539  -0.192  0.00  0.00    +0.000 A 
ATOM     12  C   UNL     1       4.782   1.744   0.355  0.00  0.00    +0.000 A 
ATOM     13  C   UNL     1       6.142   1.431   0.245  0.00  0.00    +0.000 A 
ATOM     14  C   UNL     1       7.768  -0.539  -0.283  0.00  0.00    +0.000 A 
ATOM     15  C   UNL     1       7.508  -1.853  -0.599  0.00  0.00    +0.000 A 
ATOM     16  H   UNL     1       5.676  -2.893  -0.809  0.00  0.00    +0.000 HD
ENDBRANCH   1   8
BRANCH   4  17
ATOM     17  O   UNL     1      -1.598   2.156   0.601  0.00  0.00    +0.000 OA
BRANCH  17  18
ATOM     18  C   UNL     1      -2.244   2.624  -0.581  0.00  0.00    +0.000 C 
BRANCH  18  20
ATOM     19  N   UNL     1      -4.498   3.229   0.063  0.00  0.00    +0.000 NA
ATOM     20  C   UNL     1      -3.706   2.296  -0.503  0.00  0.00    +0.000 A 
ATOM     21  C   UNL     1      -4.151   1.088  -1.003  0.00  0.00    +0.000 A 
ATOM     22  C   UNL     1      -5.511   0.815  -0.915  0.00  0.00    +0.000 A 
ATOM     23  C   UNL     1      -5.814   2.929   0.131  0.00  0.00    +0.000 A 
ATOM     24  C   UNL     1      -6.366   1.748  -0.339  0.00  0.00    +0.000 A 
ENDBRANCH  18  20
ENDBRANCH  17  18
ENDBRANCH   4  17
BRANCH   2  25
ATOM     25  C   UNL     1      -0.847  -0.528   1.225  0.00  0.00    +0.000 C 
BRANCH  25  26
ATOM     26  N   UNL     1      -1.413  -1.270   0.098  0.00  0.00    +0.000 N 
ATOM     27  H   UNL     1      -1.122  -1.016  -0.839  0.00  0.00    +0.000 HD
BRANCH  26  29
ATOM     28  N   UNL     1      -3.859  -3.928  -0.722  0.00  0.00    +0.000 NA
ATOM     29  C   UNL     1      -2.370  -2.247   0.247  0.00  0.00    +0.000 A 
ATOM     30  C   UNL     1      -2.918  -2.963  -0.828  0.00  0.00    +0.000 A 
ATOM     31  C   UNL     1      -2.862  -2.588   1.520  0.00  0.00    +0.000 A 
ATOM     32  C   UNL     1      -3.830  -3.576   1.670  0.00  0.00    +0.000 A 
ATOM     33  C   UNL     1      -4.291  -4.210   0.527  0.00  0.00    +0.000 A 
BRANCH  30  34
ATOM     34  N   UNL     1      -2.445  -2.644  -2.126  0.00  0.00    +0.000 N 
ATOM     35  H   UNL     1      -2.861  -3.160  -2.892  0.00  0.00    +0.000 HD
ATOM     36  H   UNL     1      -1.477  -2.367  -2.228  0.00  0.00    +0.000 HD
ENDBRANCH  30  34
ENDBRANCH  26  29
ENDBRANCH  25  26
ENDBRANCH   2  25
TORSDOF 8
