REMARK  Name = 11317439
REMARK  6 active torsions:
REMARK  status: ('A' for Active; 'I' for Inactive)
REMARK    1  A    between atoms: O_4  and  C_24
REMARK    2  A    between atoms: O_4  and  C_34
REMARK    3  A    between atoms: C_16  and  C_19
REMARK    4  A    between atoms: C_17  and  C_22
REMARK    5  A    between atoms: C_18  and  C_19
REMARK    6  A    between atoms: C_33  and  C_35
REMARK                            x       y       z     vdW  Elec       q    Type
REMARK                         _______ _______ _______ _____ _____    ______ ____
ROOT
ATOM      1  N   UNL     1       2.466  -0.221   1.204  0.00  0.00    +0.000 N 
ATOM      2  N   UNL     1       4.913  -1.442  -0.070  0.00  0.00    +0.000 N 
ATOM      3  N   UNL     1       4.661   0.213  -1.732  0.00  0.00    +0.000 NA
ATOM      4  N   UNL     1       4.531  -2.054   1.066  0.00  0.00    +0.000 NA
ATOM      5  N   UNL     1       6.390  -3.042   0.170  0.00  0.00    +0.000 NA
ATOM      6  C   UNL     1       1.344   1.499   0.426  0.00  0.00    +0.000 A 
ATOM      7  C   UNL     1       2.405   1.259  -0.466  0.00  0.00    +0.000 A 
ATOM      8  C   UNL     1       3.103   0.164   0.048  0.00  0.00    +0.000 A 
ATOM      9  C   UNL     1       1.390   0.592   1.440  0.00  0.00    +0.000 A 
ATOM     10  C   UNL     1       2.858   1.846  -1.656  0.00  0.00    +0.000 A 
ATOM     11  C   UNL     1       4.226  -0.356  -0.583  0.00  0.00    +0.000 A 
ATOM     12  C   UNL     1       3.985   1.274  -2.231  0.00  0.00    +0.000 A 
ATOM     13  C   UNL     1       6.021  -2.040  -0.593  0.00  0.00    +0.000 A 
ATOM     14  C   UNL     1       5.455  -3.012   1.165  0.00  0.00    +0.000 A 
ATOM     15  C   UNL     1       5.464  -3.972   2.276  0.00  0.00    +0.000 C 
ATOM     16  H   UNL     1       2.748  -0.990   1.795  0.00  0.00    +0.000 HD
ENDROOT
BRANCH   6  18
ATOM     17  O   UNL     1       0.275   3.370  -0.572  0.00  0.00    +0.000 OA
ATOM     18  C   UNL     1       0.323   2.541   0.334  0.00  0.00    +0.000 C 
BRANCH  18  27
ATOM     19  O   UNL     1      -0.479   3.410   2.299  0.00  0.00    +0.000 OA
ATOM     20  O   UNL     1      -6.029  -0.617   1.843  0.00  0.00    +0.000 OA
ATOM     21  N   UNL     1      -1.916   1.981   1.110  0.00  0.00    +0.000 N 
ATOM     22  N   UNL     1      -3.848  -0.077   1.197  0.00  0.00    +0.000 N 
ATOM     23  C   UNL     1      -3.025   2.068   2.062  0.00  0.00    +0.000 C 
ATOM     24  C   UNL     1      -2.189   1.195  -0.101  0.00  0.00    +0.000 C 
ATOM     25  C   UNL     1      -3.553   0.680   2.414  0.00  0.00    +0.000 C 
ATOM     26  C   UNL     1      -2.719  -0.189   0.263  0.00  0.00    +0.000 C 
ATOM     27  C   UNL     1      -0.745   2.683   1.351  0.00  0.00    +0.000 C 
ATOM     28  C   UNL     1      -5.103  -0.668   1.035  0.00  0.00    +0.000 C 
BRANCH  28  29
ATOM     29  C   UNL     1      -5.364  -1.408  -0.206  0.00  0.00    +0.000 A 
ATOM     30  C   UNL     1      -5.077  -2.769  -0.275  0.00  0.00    +0.000 A 
ATOM     31  C   UNL     1      -5.896  -0.745  -1.309  0.00  0.00    +0.000 A 
ATOM     32  C   UNL     1      -5.325  -3.471  -1.454  0.00  0.00    +0.000 A 
ATOM     33  C   UNL     1      -6.144  -1.447  -2.488  0.00  0.00    +0.000 A 
ATOM     34  C   UNL     1      -5.858  -2.811  -2.560  0.00  0.00    +0.000 A 
ENDBRANCH  28  29
ENDBRANCH  18  27
ENDBRANCH   6  18
BRANCH  10  35
ATOM     35  O   UNL     1       2.245   2.919  -2.233  0.00  0.00    +0.000 OA
ATOM     36  C   UNL     1       1.212   2.643  -3.176  0.00  0.00    +0.000 C 
ENDBRANCH  10  35
TORSDOF 4
