REMARK  Name = 54576073
REMARK  2 active torsions:
REMARK  status: ('A' for Active; 'I' for Inactive)
REMARK    1  A    between atoms: C_14  and  C_16
REMARK    2  A    between atoms: C_17  and  C_18
REMARK                            x       y       z     vdW  Elec       q    Type
REMARK                         _______ _______ _______ _____ _____    ______ ____
ROOT
ATOM      1  N   UNL     1       0.912   0.064   0.193  0.00  0.00    +0.000 N 
ATOM      2  N   UNL     1       3.708  -0.189   0.225  0.00  0.00    +0.000 N 
ATOM      3  N   UNL     1      -0.895   1.574   0.143  0.00  0.00    +0.000 NA
ATOM      4  N   UNL     1       5.368   1.194   1.094  0.00  0.00    +0.000 NA
ATOM      5  N   UNL     1       5.030   0.992  -1.284  0.00  0.00    +0.000 NA
ATOM      6  N   UNL     1      -2.229   1.829   0.082  0.00  0.00    +0.000 NA
ATOM      7  C   UNL     1       1.669   0.530   1.367  0.00  0.00    +0.000 C 
ATOM      8  C   UNL     1       1.653  -0.013  -1.078  0.00  0.00    +0.000 C 
ATOM      9  C   UNL     1       2.968  -0.778  -0.893  0.00  0.00    +0.000 C 
ATOM     10  C   UNL     1       2.981  -0.247   1.493  0.00  0.00    +0.000 C 
ATOM     11  C   UNL     1      -0.468   0.294   0.130  0.00  0.00    +0.000 A 
ATOM     12  C   UNL     1       4.749   0.706   0.002  0.00  0.00    +0.000 A 
ATOM     13  C   UNL     1      -1.328  -0.783   0.056  0.00  0.00    +0.000 A 
ATOM     14  C   UNL     1      -2.686  -0.524  -0.006  0.00  0.00    +0.000 A 
ATOM     15  C   UNL     1      -3.094   0.795   0.009  0.00  0.00    +0.000 A 
ATOM     16  C   UNL     1       6.372   2.058   0.841  0.00  0.00    +0.000 A 
ATOM     17  C   UNL     1       6.045   1.863  -1.464  0.00  0.00    +0.000 A 
ATOM     18  C   UNL     1       6.759   2.433  -0.430  0.00  0.00    +0.000 A 
ENDROOT
BRANCH  13  20
ATOM     19  N   UNL     1       0.036  -4.801   0.017  0.00  0.00    +0.000 NA
ATOM     20  C   UNL     1      -0.863  -2.155   0.042  0.00  0.00    +0.000 A 
ATOM     21  C   UNL     1      -0.700  -2.848   1.237  0.00  0.00    +0.000 A 
ATOM     22  C   UNL     1      -0.577  -2.783  -1.165  0.00  0.00    +0.000 A 
ATOM     23  C   UNL     1      -0.252  -4.157   1.171  0.00  0.00    +0.000 A 
ATOM     24  C   UNL     1      -0.134  -4.096  -1.123  0.00  0.00    +0.000 A 
ENDBRANCH  13  20
BRANCH  15  25
ATOM     25  C   UNL     1      -4.488   1.157  -0.051  0.00  0.00    +0.000 A 
ATOM     26  C   UNL     1      -5.261   0.776  -1.148  0.00  0.00    +0.000 A 
ATOM     27  C   UNL     1      -5.065   1.888   0.988  0.00  0.00    +0.000 A 
ATOM     28  C   UNL     1      -6.610   1.127  -1.207  0.00  0.00    +0.000 A 
ATOM     29  C   UNL     1      -6.413   2.239   0.929  0.00  0.00    +0.000 A 
ATOM     30  C   UNL     1      -7.186   1.858  -0.168  0.00  0.00    +0.000 A 
ENDBRANCH  15  25
TORSDOF 2
