REMARK  Name = 24743471
REMARK  4 active torsions:
REMARK  status: ('A' for Active; 'I' for Inactive)
REMARK    1  A    between atoms: N_2  and  C_12
REMARK    2  A    between atoms: N_3  and  C_13
REMARK    3  A    between atoms: N_4  and  C_24
REMARK    4  A    between atoms: C_18  and  C_19
REMARK                            x       y       z     vdW  Elec       q    Type
REMARK                         _______ _______ _______ _____ _____    ______ ____
ROOT
ATOM      1  C   UNL     1       2.945  -0.663  -0.145  0.00  0.00    +0.000 A 
ATOM      2  C   UNL     1       2.181  -1.606   0.542  0.00  0.00    +0.000 A 
ATOM      3  C   UNL     1       2.319   0.397  -0.802  0.00  0.00    +0.000 A 
ATOM      4  C   UNL     1       0.791  -1.490   0.572  0.00  0.00    +0.000 A 
ATOM      5  C   UNL     1       0.929   0.513  -0.771  0.00  0.00    +0.000 A 
ATOM      6  C   UNL     1       0.166  -0.431  -0.084  0.00  0.00    +0.000 A 
ENDROOT
BRANCH   1   7
ATOM      7  N   UNL     1       4.321  -0.776  -0.175  0.00  0.00    +0.000 N 
ATOM      8  N   UNL     1       6.657   1.799   0.148  0.00  0.00    +0.000 NA
ATOM      9  C   UNL     1       6.631  -0.385  -0.585  0.00  0.00    +0.000 C 
ATOM     10  C   UNL     1       5.221   0.182  -0.824  0.00  0.00    +0.000 C 
ATOM     11  C   UNL     1       6.420  -1.838  -0.197  0.00  0.00    +0.000 C 
ATOM     12  C   UNL     1       7.218   0.498   0.508  0.00  0.00    +0.000 C 
ATOM     13  C   UNL     1       5.238   1.545  -0.121  0.00  0.00    +0.000 C 
ATOM     14  C   UNL     1       5.056  -1.853   0.485  0.00  0.00    +0.000 C 
ATOM     15  C   UNL     1       6.856   2.798   1.187  0.00  0.00    +0.000 C 
ENDBRANCH   1   7
BRANCH   6  16
ATOM     16  C   UNL     1      -1.276  -0.310  -0.053  0.00  0.00    +0.000 A 
ATOM     17  C   UNL     1      -2.069  -1.454   0.042  0.00  0.00    +0.000 A 
ATOM     18  C   UNL     1      -1.872   0.949  -0.119  0.00  0.00    +0.000 A 
ATOM     19  C   UNL     1      -3.459  -1.338   0.072  0.00  0.00    +0.000 A 
ATOM     20  C   UNL     1      -3.262   1.065  -0.089  0.00  0.00    +0.000 A 
ATOM     21  C   UNL     1      -4.055  -0.079   0.006  0.00  0.00    +0.000 A 
BRANCH  21  23
ATOM     22  O   UNL     1      -5.726   2.377  -0.162  0.00  0.00    +0.000 OA
ATOM     23  N   UNL     1      -5.494   0.041   0.037  0.00  0.00    +0.000 N 
ATOM     24  N   UNL     1      -6.139  -1.171   0.120  0.00  0.00    +0.000 NA
ATOM     25  C   UNL     1      -6.198   1.249  -0.022  0.00  0.00    +0.000 A 
ATOM     26  C   UNL     1      -7.677   1.164   0.076  0.00  0.00    +0.000 A 
ATOM     27  C   UNL     1      -7.426  -1.177   0.180  0.00  0.00    +0.000 A 
ATOM     28  C   UNL     1      -8.296  -0.007   0.174  0.00  0.00    +0.000 A 
ENDBRANCH  21  23
ENDBRANCH   6  16
TORSDOF 3
