REMARK  Name = 332
REMARK  4 active torsions:
REMARK  status: ('A' for Active; 'I' for Inactive)
REMARK    1  A    between atoms: O_1  and  C_4
REMARK    2  A    between atoms: O_1  and  C_10
REMARK    3  A    between atoms: O_2  and  C_6
REMARK    4  A    between atoms: C_3  and  C_9
REMARK                            x       y       z     vdW  Elec       q    Type
REMARK                         _______ _______ _______ _____ _____    ______ ____
ROOT
ATOM      1  C   UNL     1       1.301  -0.151   0.119  0.00  0.00    +0.000 A 
ATOM      2  C   UNL     1      -1.109  -0.278  -0.002  0.00  0.00    +0.000 A 
ATOM      3  C   UNL     1       0.132  -0.911   0.068  0.00  0.00    +0.000 A 
ATOM      4  C   UNL     1      -1.181   1.115  -0.021  0.00  0.00    +0.000 A 
ATOM      5  C   UNL     1       1.228   1.242   0.100  0.00  0.00    +0.000 A 
ATOM      6  C   UNL     1      -0.013   1.875   0.030  0.00  0.00    +0.000 A 
ENDROOT
BRANCH   2   7
ATOM      7  O   UNL     1      -2.243  -1.031  -0.051  0.00  0.00    +0.000 OA
ATOM      8  C   UNL     1      -2.082  -2.447  -0.028  0.00  0.00    +0.000 C 
ENDBRANCH   2   7
BRANCH   4   9
ATOM      9  O   UNL     1      -2.387   1.745  -0.088  0.00  0.00    +0.000 OA
ATOM     10  H   UNL     1      -2.242   2.707  -0.092  0.00  0.00    +0.000 HD
ENDBRANCH   4   9
BRANCH   1  11
ATOM     11  C   UNL     1       2.595  -0.810   0.191  0.00  0.00    +0.000 C 
ATOM     12  C   UNL     1       3.757  -0.350  -0.317  0.00  0.00    +0.000 C 
ENDBRANCH   1  11
TORSDOF 3
