REMARK  Name = 688857
REMARK  2 active torsions:
REMARK  status: ('A' for Active; 'I' for Inactive)
REMARK    1  A    between atoms: O_3  and  C_14
REMARK    2  A    between atoms: C_4  and  C_6
REMARK                            x       y       z     vdW  Elec       q    Type
REMARK                         _______ _______ _______ _____ _____    ______ ____
ROOT
ATOM      1  O   UNL     1      -0.002  -0.733  -0.108  0.00  0.00    +0.000 OA
ATOM      2  O   UNL     1       1.348   3.138  -0.276  0.00  0.00    +0.000 OA
ATOM      3  C   UNL     1      -0.825   0.352   0.350  0.00  0.00    +0.000 C 
ATOM      4  C   UNL     1      -0.517   1.636  -0.419  0.00  0.00    +0.000 C 
ATOM      5  C   UNL     1       1.859   0.843  -0.062  0.00  0.00    +0.000 A 
ATOM      6  C   UNL     1       0.937   1.985  -0.232  0.00  0.00    +0.000 C 
ATOM      7  C   UNL     1       1.339  -0.454  -0.032  0.00  0.00    +0.000 A 
ATOM      8  C   UNL     1       3.238   1.052   0.023  0.00  0.00    +0.000 A 
ATOM      9  C   UNL     1       2.203  -1.547   0.049  0.00  0.00    +0.000 A 
ATOM     10  C   UNL     1       3.580  -1.340   0.133  0.00  0.00    +0.000 A 
ATOM     11  C   UNL     1       4.096  -0.043   0.125  0.00  0.00    +0.000 A 
ENDROOT
BRANCH   3  12
ATOM     12  C   UNL     1      -2.276  -0.047   0.187  0.00  0.00    +0.000 A 
ATOM     13  C   UNL     1      -3.233   0.422   1.087  0.00  0.00    +0.000 A 
ATOM     14  C   UNL     1      -2.656  -0.883  -0.862  0.00  0.00    +0.000 A 
ATOM     15  C   UNL     1      -4.570   0.055   0.937  0.00  0.00    +0.000 A 
ATOM     16  C   UNL     1      -3.993  -1.250  -1.012  0.00  0.00    +0.000 A 
ATOM     17  C   UNL     1      -4.950  -0.781  -0.112  0.00  0.00    +0.000 A 
ENDBRANCH   3  12
BRANCH  10  18
ATOM     18  O   UNL     1       4.423  -2.405   0.223  0.00  0.00    +0.000 OA
ATOM     19  H   UNL     1       5.338  -2.080   0.272  0.00  0.00    +0.000 HD
ENDBRANCH  10  18
TORSDOF 2
