REMARK  Name = 9864881
REMARK  13 active torsions:
REMARK  status: ('A' for Active; 'I' for Inactive)
REMARK    1  A    between atoms: S_1  and  C_24
REMARK    2  A    between atoms: S_1  and  C_27
REMARK    3  A    between atoms: O_2  and  C_6
REMARK    4  A    between atoms: O_2  and  C_7
REMARK    5  A    between atoms: O_3  and  C_15
REMARK    6  A    between atoms: C_6  and  C_10
REMARK    7  A    between atoms: C_6  and  C_11
REMARK    8  A    between atoms: C_6  and  C_15
REMARK    9  A    between atoms: C_8  and  C_16
REMARK   10  A    between atoms: C_9  and  C_17
REMARK   11  A    between atoms: C_12  and  C_18
REMARK   12  A    between atoms: C_19  and  C_20
REMARK   13  A    between atoms: C_20  and  C_21
REMARK                            x       y       z     vdW  Elec       q    Type
REMARK                         _______ _______ _______ _____ _____    ______ ____
ROOT
ATOM      1  C   UNL     1      -3.336  -0.519   0.469  0.00  0.00    +0.000 A 
ATOM      2  C   UNL     1      -2.291   0.301   0.886  0.00  0.00    +0.000 A 
ATOM      3  C   UNL     1      -3.072  -1.788  -0.041  0.00  0.00    +0.000 A 
ATOM      4  C   UNL     1      -0.706  -1.420   0.282  0.00  0.00    +0.000 A 
ATOM      5  C   UNL     1      -0.974  -0.150   0.792  0.00  0.00    +0.000 A 
ATOM      6  C   UNL     1      -1.756  -2.239  -0.135  0.00  0.00    +0.000 A 
ATOM      7  C   UNL     1      -2.557   1.664   1.435  0.00  0.00    +0.000 C 
ATOM      8  C   UNL     1      -4.182  -2.679  -0.493  0.00  0.00    +0.000 C 
ENDROOT
BRANCH   4   9
ATOM      9  C   UNL     1       0.666  -1.891   0.185  0.00  0.00    +0.000 C 
ATOM     10  C   UNL     1       1.763  -1.099   0.183  0.00  0.00    +0.000 C 
BRANCH  10  12
ATOM     11  O   UNL     1       3.305  -2.905  -0.041  0.00  0.00    +0.000 OA
ATOM     12  C   UNL     1       3.122  -1.697   0.060  0.00  0.00    +0.000 C 
BRANCH  12  13
ATOM     13  C   UNL     1       4.280  -0.773   0.030  0.00  0.00    +0.000 A 
ATOM     14  C   UNL     1       4.195   0.429   0.705  0.00  0.00    +0.000 A 
ATOM     15  C   UNL     1       5.411  -1.140  -0.672  0.00  0.00    +0.000 A 
ATOM     16  C   UNL     1       6.438   0.949  -0.026  0.00  0.00    +0.000 A 
ATOM     17  C   UNL     1       5.285   1.299   0.677  0.00  0.00    +0.000 A 
ATOM     18  C   UNL     1       6.501  -0.270  -0.700  0.00  0.00    +0.000 A 
BRANCH  16  19
ATOM     19  S   UNL     1       7.831   2.061  -0.062  0.00  0.00    +0.000 S 
ATOM     20  C   UNL     1       7.105   3.538  -0.827  0.00  0.00    +0.000 C 
ENDBRANCH  16  19
ENDBRANCH  12  13
ENDBRANCH  10  12
ENDBRANCH   4   9
BRANCH   1  21
ATOM     21  O   UNL     1      -4.627  -0.076   0.560  0.00  0.00    +0.000 OA
BRANCH  21  22
ATOM     22  C   UNL     1      -5.145   0.621  -0.573  0.00  0.00    +0.000 C 
ATOM     23  C   UNL     1      -6.371  -0.138  -1.074  0.00  0.00    +0.000 C 
ATOM     24  C   UNL     1      -4.042   0.700  -1.624  0.00  0.00    +0.000 C 
BRANCH  22  26
ATOM     25  O   UNL     1      -5.840   2.256   1.093  0.00  0.00    +0.000 OA
ATOM     26  C   UNL     1      -5.524   2.006  -0.064  0.00  0.00    +0.000 C 
BRANCH  26  27
ATOM     27  O   UNL     1      -5.480   2.963  -1.026  0.00  0.00    +0.000 OA
ATOM     28  H   UNL     1      -5.726   3.845  -0.675  0.00  0.00    +0.000 HD
ENDBRANCH  26  27
ENDBRANCH  22  26
ENDBRANCH  21  22
ENDBRANCH   1  21
TORSDOF 8
