REMARK  Name = 6439522
REMARK  7 active torsions:
REMARK  status: ('A' for Active; 'I' for Inactive)
REMARK    1  A    between atoms: O_1  and  C_7
REMARK    2  A    between atoms: O_2  and  C_8
REMARK    3  A    between atoms: C_3  and  C_4
REMARK    4  A    between atoms: C_3  and  C_5
REMARK    5  A    between atoms: C_3  and  C_6
REMARK    6  A    between atoms: C_9  and  C_12
REMARK    7  A    between atoms: C_13  and  C_14
REMARK                            x       y       z     vdW  Elec       q    Type
REMARK                         _______ _______ _______ _____ _____    ______ ____
ROOT
ATOM      1  C   UNL     1       3.153  -0.127   0.026  0.00  0.00    +0.000 A 
ATOM      2  C   UNL     1       2.586  -1.384   0.232  0.00  0.00    +0.000 A 
ATOM      3  C   UNL     1       2.334   0.977  -0.211  0.00  0.00    +0.000 A 
ATOM      4  C   UNL     1       0.400  -0.432  -0.035  0.00  0.00    +0.000 A 
ATOM      5  C   UNL     1       1.199  -1.538   0.202  0.00  0.00    +0.000 A 
ATOM      6  C   UNL     1       0.948   0.824  -0.241  0.00  0.00    +0.000 A 
ENDROOT
BRANCH   1   7
ATOM      7  C   UNL     1       4.638   0.038   0.058  0.00  0.00    +0.000 C 
ATOM      8  C   UNL     1       5.099   0.975   1.188  0.00  0.00    +0.000 C 
ATOM      9  C   UNL     1       5.203   0.521  -1.289  0.00  0.00    +0.000 C 
ENDBRANCH   1   7
BRANCH   2  10
ATOM     10  O   UNL     1       3.370  -2.474   0.465  0.00  0.00    +0.000 OA
ATOM     11  H   UNL     1       4.100  -2.474  -0.176  0.00  0.00    +0.000 HD
ENDBRANCH   2  10
BRANCH   3  12
ATOM     12  O   UNL     1       2.871   2.213  -0.415  0.00  0.00    +0.000 OA
ATOM     13  H   UNL     1       2.153   2.853  -0.561  0.00  0.00    +0.000 HD
ENDBRANCH   3  12
BRANCH   4  14
ATOM     14  C   UNL     1      -1.065  -0.594  -0.067  0.00  0.00    +0.000 C 
ATOM     15  C   UNL     1      -1.964   0.405   0.097  0.00  0.00    +0.000 C 
BRANCH  15  16
ATOM     16  C   UNL     1      -3.409   0.249   0.046  0.00  0.00    +0.000 A 
ATOM     17  C   UNL     1      -3.969  -0.864  -0.581  0.00  0.00    +0.000 A 
ATOM     18  C   UNL     1      -4.236   1.212   0.626  0.00  0.00    +0.000 A 
ATOM     19  C   UNL     1      -5.355  -1.014  -0.629  0.00  0.00    +0.000 A 
ATOM     20  C   UNL     1      -5.622   1.062   0.577  0.00  0.00    +0.000 A 
ATOM     21  C   UNL     1      -6.181  -0.051  -0.050  0.00  0.00    +0.000 A 
ENDBRANCH  15  16
ENDBRANCH   4  14
TORSDOF 5
