REMARK  Name = 137278711
REMARK  9 active torsions:
REMARK  status: ('A' for Active; 'I' for Inactive)
REMARK    1  A    between atoms: O_5  and  C_37
REMARK    2  A    between atoms: N_8  and  C_21
REMARK    3  A    between atoms: C_12  and  C_17
REMARK    4  A    between atoms: C_19  and  C_26
REMARK    5  A    between atoms: C_24  and  C_25
REMARK    6  A    between atoms: C_25  and  C_30
REMARK    7  A    between atoms: C_25  and  C_31
REMARK    8  A    between atoms: C_28  and  C_34
REMARK    9  A    between atoms: C_29  and  C_33
REMARK                            x       y       z     vdW  Elec       q    Type
REMARK                         _______ _______ _______ _____ _____    ______ ____
ROOT
ATOM      1  F   UNL     1       0.246  -3.571  -0.064  0.00  0.00    +0.000 F 
ATOM      2  O   UNL     1       7.459  -0.371  -1.224  0.00  0.00    +0.000 OA
ATOM      3  O   UNL     1      -0.283   3.974   0.459  0.00  0.00    +0.000 OA
ATOM      4  N   UNL     1       2.942   0.797   0.116  0.00  0.00    +0.000 N 
ATOM      5  N   UNL     1       5.445  -0.490  -0.072  0.00  0.00    +0.000 N 
ATOM      6  N   UNL     1      -1.053   1.793   0.356  0.00  0.00    +0.000 N 
ATOM      7  N   UNL     1       1.276   2.367   0.248  0.00  0.00    +0.000 NA
ATOM      8  N   UNL     1      -1.718  -0.533   0.191  0.00  0.00    +0.000 NA
ATOM      9  C   UNL     1       3.669   0.846  -1.164  0.00  0.00    +0.000 C 
ATOM     10  C   UNL     1       4.633  -0.343  -1.280  0.00  0.00    +0.000 C 
ATOM     11  C   UNL     1       3.734   0.568   1.330  0.00  0.00    +0.000 C 
ATOM     12  C   UNL     1       4.647  -0.639   1.149  0.00  0.00    +0.000 C 
ATOM     13  C   UNL     1       1.627   1.114   0.189  0.00  0.00    +0.000 A 
ATOM     14  C   UNL     1       4.390   2.187  -1.310  0.00  0.00    +0.000 C 
ATOM     15  C   UNL     1       0.607   0.041   0.191  0.00  0.00    +0.000 A 
ATOM     16  C   UNL     1       6.831  -0.501  -0.172  0.00  0.00    +0.000 C 
ATOM     17  C   UNL     1      -0.735   0.403   0.264  0.00  0.00    +0.000 A 
ATOM     18  C   UNL     1      -0.037   2.771   0.344  0.00  0.00    +0.000 A 
ATOM     19  C   UNL     1       0.942  -1.313   0.087  0.00  0.00    +0.000 A 
ATOM     20  C   UNL     1      -0.061  -2.272   0.040  0.00  0.00    +0.000 A 
ATOM     21  C   UNL     1      -1.366  -1.833   0.090  0.00  0.00    +0.000 A 
ENDROOT
BRANCH  21  23
ATOM     22  F   UNL     1      -1.748  -3.516  -2.103  0.00  0.00    +0.000 F 
ATOM     23  C   UNL     1      -2.473  -2.759   0.033  0.00  0.00    +0.000 A 
ATOM     24  C   UNL     1      -3.390  -2.836   1.081  0.00  0.00    +0.000 A 
ATOM     25  C   UNL     1      -2.620  -3.580  -1.085  0.00  0.00    +0.000 A 
ATOM     26  C   UNL     1      -4.455  -3.734   1.011  0.00  0.00    +0.000 A 
ATOM     27  C   UNL     1      -3.685  -4.478  -1.155  0.00  0.00    +0.000 A 
ATOM     28  C   UNL     1      -4.602  -4.555  -0.107  0.00  0.00    +0.000 A 
BRANCH  24  29
ATOM     29  O   UNL     1      -3.270  -2.046   2.186  0.00  0.00    +0.000 OA
ATOM     30  H   UNL     1      -3.999  -2.241   2.799  0.00  0.00    +0.000 HD
ENDBRANCH  24  29
ENDBRANCH  21  23
BRANCH   6  32
ATOM     31  N   UNL     1      -4.490   2.786  -0.666  0.00  0.00    +0.000 NA
ATOM     32  C   UNL     1      -2.436   2.172   0.450  0.00  0.00    +0.000 A 
ATOM     33  C   UNL     1      -3.188   2.426  -0.686  0.00  0.00    +0.000 A 
ATOM     34  C   UNL     1      -3.061   2.296   1.685  0.00  0.00    +0.000 A 
ATOM     35  C   UNL     1      -4.400   2.664   1.747  0.00  0.00    +0.000 A 
ATOM     36  C   UNL     1      -2.323   2.038   2.958  0.00  0.00    +0.000 C 
ATOM     37  C   UNL     1      -5.064   2.896   0.553  0.00  0.00    +0.000 A 
BRANCH  33  38
ATOM     38  C   UNL     1      -2.574   2.311  -2.044  0.00  0.00    +0.000 C 
ATOM     39  C   UNL     1      -3.247   1.222  -2.900  0.00  0.00    +0.000 C 
ATOM     40  C   UNL     1      -2.574   3.650  -2.803  0.00  0.00    +0.000 C 
ENDBRANCH  33  38
ENDBRANCH   6  32
BRANCH  16  41
ATOM     41  C   UNL     1       7.608  -0.676   1.071  0.00  0.00    +0.000 C 
ATOM     42  C   UNL     1       8.798  -1.278   1.009  0.00  0.00    +0.000 C 
ENDBRANCH  16  41
TORSDOF 5
