REMARK  Name = 11779786
REMARK  10 active torsions:
REMARK  status: ('A' for Active; 'I' for Inactive)
REMARK    1  A    between atoms: O_1  and  C_9
REMARK    2  A    between atoms: O_1  and  C_11
REMARK    3  A    between atoms: O_2  and  C_12
REMARK    4  A    between atoms: O_3  and  C_16
REMARK    5  A    between atoms: O_4  and  C_20
REMARK    6  A    between atoms: O_4  and  C_22
REMARK    7  A    between atoms: O_5  and  C_19
REMARK    8  A    between atoms: C_7  and  C_17
REMARK    9  A    between atoms: C_8  and  C_20
REMARK   10  A    between atoms: C_14  and  C_21
REMARK                            x       y       z     vdW  Elec       q    Type
REMARK                         _______ _______ _______ _____ _____    ______ ____
ROOT
ATOM      1  C   UNL     1       1.720  -0.445  -0.857  0.00  0.00    +0.000 A 
ATOM      2  C   UNL     1       2.704   0.083  -0.021  0.00  0.00    +0.000 A 
ATOM      3  C   UNL     1       0.109  -0.283   0.936  0.00  0.00    +0.000 A 
ATOM      4  C   UNL     1       0.422  -0.628  -0.379  0.00  0.00    +0.000 A 
ATOM      5  C   UNL     1       2.390   0.428   1.293  0.00  0.00    +0.000 A 
ATOM      6  C   UNL     1       1.093   0.245   1.772  0.00  0.00    +0.000 A 
ATOM      7  C   UNL     1       2.025  -0.823  -2.270  0.00  0.00    +0.000 C 
ENDROOT
BRANCH   5   8
ATOM      8  O   UNL     1       3.336   0.945   2.128  0.00  0.00    +0.000 OA
ATOM      9  H   UNL     1       4.191   1.016   1.673  0.00  0.00    +0.000 HD
ENDBRANCH   5   8
BRANCH   2  11
ATOM     10  O   UNL     1       4.442   1.316  -1.054  0.00  0.00    +0.000 OA
ATOM     11  C   UNL     1       4.062   0.276  -0.517  0.00  0.00    +0.000 C 
BRANCH  11  12
ATOM     12  O   UNL     1       4.870  -0.815  -0.324  0.00  0.00    +0.000 OA
ATOM     13  C   UNL     1       6.219  -0.693  -0.788  0.00  0.00    +0.000 C 
ENDBRANCH  11  12
ENDBRANCH   2  11
BRANCH   3  14
ATOM     14  O   UNL     1      -1.157  -0.462   1.404  0.00  0.00    +0.000 OA
BRANCH  14  15
ATOM     15  C   UNL     1      -2.259  -0.095   0.677  0.00  0.00    +0.000 A 
ATOM     16  C   UNL     1      -3.531   1.623  -0.435  0.00  0.00    +0.000 A 
ATOM     17  C   UNL     1      -2.414   1.237   0.307  0.00  0.00    +0.000 A 
ATOM     18  C   UNL     1      -3.207  -1.046   0.313  0.00  0.00    +0.000 A 
ATOM     19  C   UNL     1      -4.486   0.675  -0.803  0.00  0.00    +0.000 A 
ATOM     20  C   UNL     1      -4.324  -0.659  -0.429  0.00  0.00    +0.000 A 
ATOM     21  C   UNL     1      -3.704   3.049  -0.834  0.00  0.00    +0.000 C 
BRANCH  18  22
ATOM     22  O   UNL     1      -3.048  -2.350   0.676  0.00  0.00    +0.000 OA
ATOM     23  H   UNL     1      -3.546  -2.921   0.069  0.00  0.00    +0.000 HD
ENDBRANCH  18  22
BRANCH  20  24
ATOM     24  O   UNL     1      -5.262  -1.576  -0.797  0.00  0.00    +0.000 OA
ATOM     25  H   UNL     1      -5.223  -2.340  -0.199  0.00  0.00    +0.000 HD
ENDBRANCH  20  24
ENDBRANCH  14  15
ENDBRANCH   3  14
TORSDOF 7
