REMARK  Name = 11840979
REMARK  14 active torsions:
REMARK  status: ('A' for Active; 'I' for Inactive)
REMARK    1  A    between atoms: O_2  and  C_14
REMARK    2  A    between atoms: O_2  and  C_18
REMARK    3  A    between atoms: O_3  and  C_12
REMARK    4  A    between atoms: O_3  and  C_20
REMARK    5  A    between atoms: O_4  and  C_13
REMARK    6  A    between atoms: O_4  and  C_21
REMARK    7  A    between atoms: O_5  and  C_16
REMARK    8  A    between atoms: O_5  and  C_24
REMARK    9  A    between atoms: O_7  and  C_22
REMARK   10  A    between atoms: O_8  and  C_27
REMARK   11  A    between atoms: N_9  and  C_15
REMARK   12  A    between atoms: C_10  and  C_11
REMARK   13  A    between atoms: C_11  and  C_14
REMARK   14  A    between atoms: C_18  and  C_19
REMARK                            x       y       z     vdW  Elec       q    Type
REMARK                         _______ _______ _______ _____ _____    ______ ____
ROOT
ATOM      1  C   UNL     1      -0.904   0.183   0.459  0.00  0.00    +0.000 C 
ENDROOT
BRANCH   1   2
ATOM      2  C   UNL     1      -2.390  -0.019   0.287  0.00  0.00    +0.000 A 
ATOM      3  C   UNL     1      -2.908  -1.306   0.272  0.00  0.00    +0.000 A 
ATOM      4  C   UNL     1      -3.217   1.086   0.146  0.00  0.00    +0.000 A 
ATOM      5  C   UNL     1      -4.281  -1.492   0.113  0.00  0.00    +0.000 A 
ATOM      6  C   UNL     1      -4.590   0.900  -0.013  0.00  0.00    +0.000 A 
ATOM      7  C   UNL     1      -5.122  -0.389  -0.029  0.00  0.00    +0.000 A 
BRANCH   5   8
ATOM      8  N   UNL     1      -4.835  -2.791   0.095  0.00  0.00    +0.000 N 
ATOM      9  H   UNL     1      -5.831  -2.917  -0.027  0.00  0.00    +0.000 HD
ATOM     10  H   UNL     1      -4.230  -3.598   0.169  0.00  0.00    +0.000 HD
ENDBRANCH   5   8
BRANCH   3  11
ATOM     11  O   UNL     1      -2.083  -2.385   0.411  0.00  0.00    +0.000 OA
ATOM     12  C   UNL     1      -1.845  -2.849   1.737  0.00  0.00    +0.000 C 
ENDBRANCH   3  11
BRANCH   4  13
ATOM     13  O   UNL     1      -2.703   2.349   0.161  0.00  0.00    +0.000 OA
ATOM     14  C   UNL     1      -2.910   3.146  -1.002  0.00  0.00    +0.000 C 
ENDBRANCH   4  13
BRANCH   6  15
ATOM     15  O   UNL     1      -5.423   1.970  -0.152  0.00  0.00    +0.000 OA
ATOM     16  C   UNL     1      -6.813   1.692  -0.309  0.00  0.00    +0.000 C 
ENDBRANCH   6  15
ENDBRANCH   1   2
BRANCH   1  17
ATOM     17  C   UNL     1      -0.164   0.208  -0.873  0.00  0.00    +0.000 C 
BRANCH  17  18
ATOM     18  O   UNL     1       1.231   0.442  -0.648  0.00  0.00    +0.000 OA
BRANCH  18  20
ATOM     19  O   UNL     1       1.601  -1.825  -0.492  0.00  0.00    +0.000 OA
ATOM     20  C   UNL     1       2.019  -0.661  -0.470  0.00  0.00    +0.000 C 
BRANCH  20  22
ATOM     21 CL   UNL     1       5.360   2.807   1.351  0.00  0.00    +0.000 Cl
ATOM     22  C   UNL     1       3.411  -0.292  -0.249  0.00  0.00    +0.000 A 
ATOM     23  C   UNL     1       4.447  -1.137  -0.647  0.00  0.00    +0.000 A 
ATOM     24  C   UNL     1       3.702   0.925   0.367  0.00  0.00    +0.000 A 
ATOM     25  C   UNL     1       5.773  -0.766  -0.428  0.00  0.00    +0.000 A 
ATOM     26  C   UNL     1       5.028   1.296   0.586  0.00  0.00    +0.000 A 
ATOM     27  C   UNL     1       6.064   0.451   0.188  0.00  0.00    +0.000 A 
BRANCH  23  28
ATOM     28  O   UNL     1       4.183  -2.330  -1.251  0.00  0.00    +0.000 OA
ATOM     29  H   UNL     1       3.229  -2.439  -1.392  0.00  0.00    +0.000 HD
ENDBRANCH  23  28
BRANCH  27  30
ATOM     30  O   UNL     1       7.369   0.789   0.390  0.00  0.00    +0.000 OA
ATOM     31  H   UNL     1       7.939   0.079   0.048  0.00  0.00    +0.000 HD
ENDBRANCH  27  30
ENDBRANCH  20  22
ENDBRANCH  18  20
ENDBRANCH  17  18
ENDBRANCH   1  17
TORSDOF 11
