REMARK  Name = 8569
REMARK  6 active torsions:
REMARK  status: ('A' for Active; 'I' for Inactive)
REMARK    1  A    between atoms: O_1  and  C_10
REMARK    2  A    between atoms: O_1  and  C_18
REMARK    3  A    between atoms: O_2  and  C_8
REMARK    4  A    between atoms: O_4  and  C_12
REMARK    5  A    between atoms: C_5  and  C_7
REMARK    6  A    between atoms: C_6  and  C_7
REMARK                            x       y       z     vdW  Elec       q    Type
REMARK                         _______ _______ _______ _____ _____    ______ ____
ROOT
ATOM      1  C   UNL     1      -0.616  -0.596   0.116  0.00  0.00    +0.000 A 
ATOM      2  C   UNL     1      -1.702  -1.454   0.104  0.00  0.00    +0.000 A 
ATOM      3  C   UNL     1      -0.780   0.779   0.072  0.00  0.00    +0.000 A 
ATOM      4  C   UNL     1      -3.174   0.459   0.002  0.00  0.00    +0.000 A 
ATOM      5  C   UNL     1      -2.990  -0.923   0.046  0.00  0.00    +0.000 A 
ATOM      6  C   UNL     1      -2.068   1.310   0.015  0.00  0.00    +0.000 A 
ENDROOT
BRANCH   4   7
ATOM      7  O   UNL     1      -4.431   0.978  -0.056  0.00  0.00    +0.000 OA
ATOM      8  C   UNL     1      -4.546   2.399  -0.102  0.00  0.00    +0.000 C 
ENDBRANCH   4   7
BRANCH   2   9
ATOM      9  O   UNL     1      -1.544  -2.807   0.150  0.00  0.00    +0.000 OA
ATOM     10  H   UNL     1      -2.420  -3.230   0.133  0.00  0.00    +0.000 HD
ENDBRANCH   2   9
BRANCH   1  12
ATOM     11  O   UNL     1       0.950  -2.360   0.234  0.00  0.00    +0.000 OA
ATOM     12  C   UNL     1       0.757  -1.137   0.181  0.00  0.00    +0.000 C 
BRANCH  12  13
ATOM     13  C   UNL     1       1.910  -0.247   0.200  0.00  0.00    +0.000 A 
ATOM     14  C   UNL     1       2.522   0.156  -0.987  0.00  0.00    +0.000 A 
ATOM     15  C   UNL     1       2.403   0.201   1.425  0.00  0.00    +0.000 A 
ATOM     16  C   UNL     1       3.626   1.007  -0.948  0.00  0.00    +0.000 A 
ATOM     17  C   UNL     1       3.507   1.052   1.464  0.00  0.00    +0.000 A 
ATOM     18  C   UNL     1       4.119   1.455   0.278  0.00  0.00    +0.000 A 
BRANCH  14  19
ATOM     19  O   UNL     1       2.056  -0.272  -2.195  0.00  0.00    +0.000 OA
ATOM     20  H   UNL     1       2.604   0.112  -2.901  0.00  0.00    +0.000 HD
ENDBRANCH  14  19
ENDBRANCH  12  13
ENDBRANCH   1  12
TORSDOF 5
