REMARK  Name = 50914062
REMARK  3 active torsions:
REMARK  status: ('A' for Active; 'I' for Inactive)
REMARK    1  A    between atoms: C_9  and  C_14
REMARK    2  A    between atoms: C_15  and  C_17
REMARK    3  A    between atoms: C_17  and  C_21
REMARK                            x       y       z     vdW  Elec       q    Type
REMARK                         _______ _______ _______ _____ _____    ______ ____
ROOT
ATOM      1  O   UNL     1       1.677  -1.559  -0.217  0.00  0.00    +0.000 OA
ATOM      2  N   UNL     1       2.534   0.575  -0.042  0.00  0.00    +0.000 N 
ATOM      3  N   UNL     1      -0.622   0.565  -0.975  0.00  0.00    +0.000 N 
ATOM      4  N   UNL     1      -2.434  -0.678  -1.845  0.00  0.00    +0.000 NA
ATOM      5  N   UNL     1      -4.277  -0.350   1.736  0.00  0.00    +0.000 N 
ATOM      6  N   UNL     1      -4.400  -1.215  -0.512  0.00  0.00    +0.000 NA
ATOM      7  C   UNL     1       1.490   1.496  -0.493  0.00  0.00    +0.000 C 
ATOM      8  C   UNL     1       2.345   2.613   0.139  0.00  0.00    +0.000 C 
ATOM      9  C   UNL     1       1.309   1.484  -2.003  0.00  0.00    +0.000 C 
ATOM     10  C   UNL     1       3.505   1.619   0.239  0.00  0.00    +0.000 C 
ATOM     11  C   UNL     1       0.117   1.220   0.107  0.00  0.00    +0.000 C 
ATOM     12  C   UNL     1       0.144   0.516  -2.220  0.00  0.00    +0.000 C 
ATOM     13  C   UNL     1       1.909   3.195   1.464  0.00  0.00    +0.000 C 
ATOM     14  C   UNL     1       2.595  -0.791   0.061  0.00  0.00    +0.000 C 
ATOM     15  C   UNL     1      -1.863  -0.016  -0.813  0.00  0.00    +0.000 A 
ATOM     16  C   UNL     1      -2.536   0.072   0.405  0.00  0.00    +0.000 A 
ATOM     17  C   UNL     1      -3.780  -0.544   0.474  0.00  0.00    +0.000 A 
ATOM     18  C   UNL     1      -2.290   0.651   1.676  0.00  0.00    +0.000 A 
ATOM     19  C   UNL     1      -3.651  -1.229  -1.633  0.00  0.00    +0.000 A 
ATOM     20  C   UNL     1      -3.379   0.376   2.475  0.00  0.00    +0.000 A 
ATOM     21  H   UNL     1      -5.169  -0.689   2.069  0.00  0.00    +0.000 HD
ENDROOT
BRANCH  14  22
ATOM     22  C   UNL     1       3.914  -1.312   0.568  0.00  0.00    +0.000 C 
BRANCH  22  24
ATOM     23  N   UNL     1       3.832  -3.923   0.744  0.00  0.00    +0.000 NA
ATOM     24  C   UNL     1       3.860  -2.766   0.663  0.00  0.00    +0.000 C 
ENDBRANCH  22  24
ENDBRANCH  14  22
TORSDOF 2
