REMARK  Name = 119396
REMARK  4 active torsions:
REMARK  status: ('A' for Active; 'I' for Inactive)
REMARK    1  A    between atoms: O_2  and  C_13
REMARK    2  A    between atoms: O_3  and  C_15
REMARK    3  A    between atoms: O_4  and  C_20
REMARK    4  A    between atoms: C_16  and  C_20
REMARK                            x       y       z     vdW  Elec       q    Type
REMARK                         _______ _______ _______ _____ _____    ______ ____
ROOT
ATOM      1  O   UNL     1      -1.282   2.275  -0.003  0.00  0.00    +0.000 OA
ATOM      2  C   UNL     1      -0.456  -1.812  -0.002  0.00  0.00    +0.000 C 
ATOM      3  C   UNL     1       0.633  -0.775  -0.001  0.00  0.00    +0.000 A 
ATOM      4  C   UNL     1      -1.862  -1.279  -0.001  0.00  0.00    +0.000 A 
ATOM      5  C   UNL     1       0.360   0.597  -0.001  0.00  0.00    +0.000 A 
ATOM      6  C   UNL     1      -2.144   0.092   0.000  0.00  0.00    +0.000 A 
ATOM      7  C   UNL     1      -1.039   1.075  -0.001  0.00  0.00    +0.000 C 
ATOM      8  C   UNL     1       1.971  -1.198  -0.001  0.00  0.00    +0.000 A 
ATOM      9  C   UNL     1       1.407   1.529  -0.001  0.00  0.00    +0.000 A 
ATOM     10  C   UNL     1      -2.931  -2.189  -0.000  0.00  0.00    +0.000 A 
ATOM     11  C   UNL     1      -3.470   0.544   0.001  0.00  0.00    +0.000 A 
ATOM     12  C   UNL     1       3.013  -0.271  -0.001  0.00  0.00    +0.000 A 
ATOM     13  C   UNL     1       2.731   1.092  -0.000  0.00  0.00    +0.000 A 
ATOM     14  C   UNL     1      -4.251  -1.738   0.001  0.00  0.00    +0.000 A 
ATOM     15  C   UNL     1      -4.520  -0.373   0.002  0.00  0.00    +0.000 A 
ENDROOT
BRANCH   9  16
ATOM     16  O   UNL     1       1.201   2.877   0.002  0.00  0.00    +0.000 OA
ATOM     17  H   UNL     1       0.255   3.082   0.006  0.00  0.00    +0.000 HD
ENDBRANCH   9  16
BRANCH  11  18
ATOM     18  O   UNL     1      -3.804   1.866   0.001  0.00  0.00    +0.000 OA
ATOM     19  H   UNL     1      -4.772   1.959   0.002  0.00  0.00    +0.000 HD
ENDBRANCH  11  18
BRANCH  12  21
ATOM     20  O   UNL     1       4.774  -1.897   0.003  0.00  0.00    +0.000 OA
ATOM     21  C   UNL     1       4.394  -0.728   0.001  0.00  0.00    +0.000 C 
BRANCH  21  22
ATOM     22  O   UNL     1       5.275   0.311   0.001  0.00  0.00    +0.000 OA
ATOM     23  H   UNL     1       6.205   0.001   0.002  0.00  0.00    +0.000 HD
ENDBRANCH  21  22
ENDBRANCH  12  21
TORSDOF 4
