REMARK  Name = 57495353
REMARK  7 active torsions:
REMARK  status: ('A' for Active; 'I' for Inactive)
REMARK    1  A    between atoms: O_5  and  C_30
REMARK    2  A    between atoms: O_5  and  C_32
REMARK    3  A    between atoms: N_7  and  C_12
REMARK    4  A    between atoms: N_8  and  C_24
REMARK    5  A    between atoms: C_19  and  C_23
REMARK    6  A    between atoms: C_23  and  C_26
REMARK    7  A    between atoms: C_29  and  C_31
REMARK                            x       y       z     vdW  Elec       q    Type
REMARK                         _______ _______ _______ _____ _____    ______ ____
ROOT
ATOM      1  N   UNL     1       2.705   0.702  -0.365  0.00  0.00    +0.000 N 
ATOM      2  N   UNL     1      -1.325   2.040   0.115  0.00  0.00    +0.000 N 
ATOM      3  N   UNL     1       3.472   2.904  -0.282  0.00  0.00    +0.000 NA
ATOM      4  N   UNL     1       1.953   4.699   0.240  0.00  0.00    +0.000 NA
ATOM      5  C   UNL     1       1.139   2.434   0.115  0.00  0.00    +0.000 A 
ATOM      6  C   UNL     1       2.435   2.046  -0.178  0.00  0.00    +0.000 A 
ATOM      7  C   UNL     1       0.016   1.450   0.266  0.00  0.00    +0.000 C 
ATOM      8  C   UNL     1      -1.474   3.487  -0.088  0.00  0.00    +0.000 C 
ATOM      9  C   UNL     1       0.956   3.792   0.322  0.00  0.00    +0.000 A 
ATOM     10  C   UNL     1      -0.416   4.274   0.684  0.00  0.00    +0.000 C 
ATOM     11  C   UNL     1       3.164   4.195  -0.065  0.00  0.00    +0.000 A 
ATOM     12  H   UNL     1       2.068   0.043   0.072  0.00  0.00    +0.000 HD
ENDROOT
BRANCH   1  15
ATOM     13  O   UNL     1       3.818  -4.130   1.049  0.00  0.00    +0.000 OA
ATOM     14  N   UNL     1       3.992  -2.095  -0.031  0.00  0.00    +0.000 N 
ATOM     15  C   UNL     1       4.021   0.184  -0.675  0.00  0.00    +0.000 C 
ATOM     16  C   UNL     1       4.834   0.013   0.606  0.00  0.00    +0.000 C 
ATOM     17  C   UNL     1       3.922  -1.240  -1.215  0.00  0.00    +0.000 C 
ATOM     18  C   UNL     1       4.368  -1.332   1.149  0.00  0.00    +0.000 C 
ATOM     19  C   UNL     1       3.744  -3.455   0.021  0.00  0.00    +0.000 C 
BRANCH  19  20
ATOM     20  C   UNL     1       3.357  -4.097  -1.287  0.00  0.00    +0.000 C 
ATOM     21  C   UNL     1       3.152  -5.580  -1.093  0.00  0.00    +0.000 C 
ENDBRANCH  19  20
ENDBRANCH   1  15
BRANCH   2  23
ATOM     22  N   UNL     1      -4.623   0.814  -0.987  0.00  0.00    +0.000 NA
ATOM     23  C   UNL     1      -2.422   1.187  -0.059  0.00  0.00    +0.000 A 
ATOM     24  C   UNL     1      -2.431  -0.089   0.494  0.00  0.00    +0.000 A 
ATOM     25  C   UNL     1      -3.533   1.587  -0.784  0.00  0.00    +0.000 A 
ATOM     26  C   UNL     1      -3.534  -0.914   0.307  0.00  0.00    +0.000 A 
ATOM     27  C   UNL     1      -4.595  -0.420  -0.435  0.00  0.00    +0.000 A 
BRANCH  26  31
ATOM     28  F   UNL     1      -2.417  -2.575   1.590  0.00  0.00    +0.000 F 
ATOM     29  F   UNL     1      -4.582  -2.485   1.775  0.00  0.00    +0.000 F 
ATOM     30  F   UNL     1      -3.683  -3.278  -0.032  0.00  0.00    +0.000 F 
ATOM     31  C   UNL     1      -3.556  -2.282   0.895  0.00  0.00    +0.000 C 
ENDBRANCH  26  31
BRANCH  27  32
ATOM     32  O   UNL     1      -5.702  -1.203  -0.641  0.00  0.00    +0.000 OA
ATOM     33  C   UNL     1      -6.753  -0.633  -1.411  0.00  0.00    +0.000 C 
ENDBRANCH  27  32
ENDBRANCH   2  23
TORSDOF 5
