REMARK  Name = 7338
REMARK  5 active torsions:
REMARK  status: ('A' for Active; 'I' for Inactive)
REMARK    1  A    between atoms: O_1  and  C_4
REMARK    2  A    between atoms: O_1  and  C_12
REMARK    3  A    between atoms: O_2  and  C_7
REMARK    4  A    between atoms: C_3  and  C_9
REMARK    5  A    between atoms: C_10  and  C_11
REMARK                            x       y       z     vdW  Elec       q    Type
REMARK                         _______ _______ _______ _____ _____    ______ ____
ROOT
ATOM      1  C   UNL     1       0.949  -0.573   0.058  0.00  0.00    +0.000 A 
ATOM      2  C   UNL     1      -1.219   0.474   0.265  0.00  0.00    +0.000 A 
ATOM      3  C   UNL     1       0.173   0.565   0.281  0.00  0.00    +0.000 A 
ATOM      4  C   UNL     1       0.333  -1.801  -0.182  0.00  0.00    +0.000 A 
ATOM      5  C   UNL     1      -1.835  -0.754   0.026  0.00  0.00    +0.000 A 
ATOM      6  C   UNL     1      -1.059  -1.892  -0.198  0.00  0.00    +0.000 A 
ENDROOT
BRANCH   1   7
ATOM      7  C   UNL     1       2.400  -0.478   0.074  0.00  0.00    +0.000 C 
ATOM      8  C   UNL     1       3.123   0.653  -0.088  0.00  0.00    +0.000 C 
ATOM      9  C   UNL     1       4.616   0.702  -0.072  0.00  0.00    +0.000 C 
ENDBRANCH   1   7
BRANCH   2  10
ATOM     10  O   UNL     1      -1.965   1.592   0.485  0.00  0.00    +0.000 OA
ATOM     11  C   UNL     1      -2.322   2.368  -0.657  0.00  0.00    +0.000 C 
ENDBRANCH   2  10
BRANCH   5  12
ATOM     12  O   UNL     1      -3.193  -0.856   0.008  0.00  0.00    +0.000 OA
ATOM     13  H   UNL     1      -3.439  -1.779  -0.173  0.00  0.00    +0.000 HD
ENDBRANCH   5  12
TORSDOF 3
