REMARK  Name = 6323454
REMARK  2 active torsions:
REMARK  status: ('A' for Active; 'I' for Inactive)
REMARK    1  A    between atoms: O_6  and  C_19
REMARK    2  A    between atoms: C_10  and  C_16
REMARK                            x       y       z     vdW  Elec       q    Type
REMARK                         _______ _______ _______ _____ _____    ______ ____
ROOT
ATOM      1  O   UNL     1      -2.439   1.966  -0.528  0.00  0.00    +0.000 OA
ATOM      2  O   UNL     1      -2.706  -1.493   0.111  0.00  0.00    +0.000 OA
ATOM      3  O   UNL     1      -0.170  -2.516  -0.446  0.00  0.00    +0.000 OA
ATOM      4  O   UNL     1      -4.911  -1.947   0.610  0.00  0.00    +0.000 OA
ATOM      5  O   UNL     1       1.799   2.435  -0.271  0.00  0.00    +0.000 OA
ATOM      6  C   UNL     1      -2.798   0.786   0.159  0.00  0.00    +0.000 C 
ATOM      7  C   UNL     1      -2.083  -0.368  -0.497  0.00  0.00    +0.000 C 
ATOM      8  C   UNL     1      -0.607  -0.192  -0.311  0.00  0.00    +0.000 C 
ATOM      9  C   UNL     1      -1.041   2.293  -0.303  0.00  0.00    +0.000 C 
ATOM     10  C   UNL     1      -0.123   1.064  -0.245  0.00  0.00    +0.000 C 
ATOM     11  C   UNL     1      -4.226   0.318   0.031  0.00  0.00    +0.000 C 
ATOM     12  C   UNL     1      -4.034  -1.159   0.292  0.00  0.00    +0.000 C 
ATOM     13  C   UNL     1       0.273  -1.385  -0.291  0.00  0.00    +0.000 C 
ATOM     14  C   UNL     1       1.347   1.300  -0.178  0.00  0.00    +0.000 C 
ATOM     15  C   UNL     1      -0.967   3.154   0.962  0.00  0.00    +0.000 C 
ATOM     16  C   UNL     1       1.715  -1.164  -0.079  0.00  0.00    +0.000 A 
ATOM     17  C   UNL     1       2.231   0.130  -0.025  0.00  0.00    +0.000 A 
ATOM     18  C   UNL     1       3.605   0.324   0.166  0.00  0.00    +0.000 A 
ATOM     19  C   UNL     1       2.569  -2.265   0.055  0.00  0.00    +0.000 A 
ATOM     20  C   UNL     1       4.454  -0.775   0.303  0.00  0.00    +0.000 A 
ATOM     21  C   UNL     1       3.937  -2.067   0.247  0.00  0.00    +0.000 A 
ENDROOT
BRANCH  18  22
ATOM     22  O   UNL     1       4.174   1.561   0.236  0.00  0.00    +0.000 OA
ATOM     23  H   UNL     1       5.133   1.472   0.372  0.00  0.00    +0.000 HD
ENDBRANCH  18  22
TORSDOF 1
