REMARK  Name = 443833
REMARK  5 active torsions:
REMARK  status: ('A' for Active; 'I' for Inactive)
REMARK    1  A    between atoms: O_2  and  C_13
REMARK    2  A    between atoms: O_3  and  C_19
REMARK    3  A    between atoms: C_6  and  C_11
REMARK    4  A    between atoms: C_10  and  C_16
REMARK    5  A    between atoms: C_11  and  C_19
REMARK                            x       y       z     vdW  Elec       q    Type
REMARK                         _______ _______ _______ _____ _____    ______ ____
ROOT
ATOM      1  O   UNL     1      -2.432  -0.714  -0.369  0.00  0.00    +0.000 OA
ATOM      2  O   UNL     1       4.129  -1.902   0.130  0.00  0.00    +0.000 OA
ATOM      3  C   UNL     1      -2.548   0.654   0.034  0.00  0.00    +0.000 C 
ATOM      4  C   UNL     1      -1.544   1.495  -0.736  0.00  0.00    +0.000 C 
ATOM      5  C   UNL     1      -0.172   0.977  -0.423  0.00  0.00    +0.000 A 
ATOM      6  C   UNL     1      -0.014  -0.492  -0.284  0.00  0.00    +0.000 A 
ATOM      7  C   UNL     1      -1.149  -1.248  -0.294  0.00  0.00    +0.000 C 
ATOM      8  C   UNL     1       0.880   1.799  -0.261  0.00  0.00    +0.000 A 
ATOM      9  C   UNL     1       1.369  -1.034  -0.154  0.00  0.00    +0.000 A 
ATOM     10  C   UNL     1       2.203   1.256   0.005  0.00  0.00    +0.000 A 
ATOM     11  C   UNL     1       2.425  -0.199   0.001  0.00  0.00    +0.000 A 
ATOM     12  C   UNL     1      -1.217  -2.748  -0.205  0.00  0.00    +0.000 C 
ATOM     13  C   UNL     1       3.240   2.088   0.209  0.00  0.00    +0.000 C 
ATOM     14  C   UNL     1       3.829  -0.714   0.173  0.00  0.00    +0.000 C 
ATOM     15  C   UNL     1       4.579   1.604   0.434  0.00  0.00    +0.000 C 
ATOM     16  C   UNL     1       4.885   0.303   0.415  0.00  0.00    +0.000 C 
ENDROOT
BRANCH   9  17
ATOM     17  O   UNL     1       1.483  -2.406  -0.203  0.00  0.00    +0.000 OA
ATOM     18  H   UNL     1       2.417  -2.656  -0.116  0.00  0.00    +0.000 HD
ENDBRANCH   9  17
BRANCH   3  19
ATOM     19  C   UNL     1      -3.975   1.100  -0.255  0.00  0.00    +0.000 C 
BRANCH  19  21
ATOM     20  O   UNL     1      -4.744  -0.714   1.179  0.00  0.00    +0.000 OA
ATOM     21  C   UNL     1      -4.986   0.234   0.448  0.00  0.00    +0.000 C 
BRANCH  21  22
ATOM     22  O   UNL     1      -6.242   0.659   0.154  0.00  0.00    +0.000 OA
ATOM     23  H   UNL     1      -6.926   0.114   0.599  0.00  0.00    +0.000 HD
ENDBRANCH  21  22
ENDBRANCH  19  21
ENDBRANCH   3  19
TORSDOF 4
