REMARK  Name = 10026128
REMARK  8 active torsions:
REMARK  status: ('A' for Active; 'I' for Inactive)
REMARK    1  A    between atoms: O_3  and  C_21
REMARK    2  A    between atoms: O_3  and  C_25
REMARK    3  A    between atoms: C_8  and  C_13
REMARK    4  A    between atoms: C_8  and  C_14
REMARK    5  A    between atoms: C_16  and  C_21
REMARK    6  A    between atoms: C_19  and  C_24
REMARK    7  A    between atoms: C_25  and  C_28
REMARK    8  A    between atoms: C_25  and  C_29
REMARK                            x       y       z     vdW  Elec       q    Type
REMARK                         _______ _______ _______ _____ _____    ______ ____
ROOT
ATOM      1  O   UNL     1      -2.188  -2.980  -1.392  0.00  0.00    +0.000 OA
ATOM      2  N   UNL     1      -0.809  -1.111  -1.029  0.00  0.00    +0.000 N 
ATOM      3  N   UNL     1       2.733   1.030   0.448  0.00  0.00    +0.000 N 
ATOM      4  C   UNL     1       1.498  -2.192  -0.909  0.00  0.00    +0.000 C 
ATOM      5  C   UNL     1       2.229  -1.017  -0.266  0.00  0.00    +0.000 A 
ATOM      6  C   UNL     1       0.309  -1.698  -1.774  0.00  0.00    +0.000 C 
ATOM      7  C   UNL     1       1.709   0.264  -0.060  0.00  0.00    +0.000 A 
ATOM      8  C   UNL     1       3.561  -1.025   0.304  0.00  0.00    +0.000 A 
ATOM      9  C   UNL     1       1.007  -3.175   0.170  0.00  0.00    +0.000 C 
ATOM     10  C   UNL     1       2.417  -2.955  -1.897  0.00  0.00    +0.000 C 
ATOM     11  C   UNL     1       3.845   0.275   0.711  0.00  0.00    +0.000 A 
ATOM     12  C   UNL     1       0.424   0.862  -0.217  0.00  0.00    +0.000 C 
ATOM     13  C   UNL     1      -0.689   0.193  -0.567  0.00  0.00    +0.000 C 
ATOM     14  C   UNL     1       4.557  -2.005   0.524  0.00  0.00    +0.000 A 
ATOM     15  C   UNL     1      -2.028  -1.825  -0.996  0.00  0.00    +0.000 C 
ATOM     16  C   UNL     1       5.063   0.655   1.289  0.00  0.00    +0.000 A 
ATOM     17  C   UNL     1       5.781  -1.647   1.104  0.00  0.00    +0.000 A 
ATOM     18  C   UNL     1       6.031  -0.331   1.475  0.00  0.00    +0.000 A 
ATOM     19  H   UNL     1       2.660   2.012   0.677  0.00  0.00    +0.000 HD
ENDROOT
BRANCH  15  22
ATOM     20  F   UNL     1      -4.844  -0.888   2.838  0.00  0.00    +0.000 F 
ATOM     21  F   UNL     1      -6.526   0.605   1.283  0.00  0.00    +0.000 F 
ATOM     22  C   UNL     1      -3.214  -1.184  -0.395  0.00  0.00    +0.000 A 
ATOM     23  C   UNL     1      -3.470  -1.343   0.963  0.00  0.00    +0.000 A 
ATOM     24  C   UNL     1      -4.066  -0.426  -1.191  0.00  0.00    +0.000 A 
ATOM     25  C   UNL     1      -4.592  -0.738   1.531  0.00  0.00    +0.000 A 
ATOM     26  C   UNL     1      -5.188   0.179  -0.624  0.00  0.00    +0.000 A 
ATOM     27  C   UNL     1      -5.450   0.023   0.738  0.00  0.00    +0.000 A 
ENDBRANCH  15  22
BRANCH  12  29
ATOM     28  O   UNL     1      -0.232   2.613   1.239  0.00  0.00    +0.000 OA
ATOM     29  C   UNL     1       0.143   2.270   0.137  0.00  0.00    +0.000 C 
BRANCH  29  30
ATOM     30  O   UNL     1       0.379   3.034  -0.954  0.00  0.00    +0.000 OA
BRANCH  30  31
ATOM     31  C   UNL     1       0.150   4.435  -0.767  0.00  0.00    +0.000 C 
ATOM     32  C   UNL     1       1.038   4.941   0.359  0.00  0.00    +0.000 C 
ATOM     33  C   UNL     1       0.420   5.165  -2.074  0.00  0.00    +0.000 C 
ENDBRANCH  30  31
ENDBRANCH  29  30
ENDBRANCH  12  29
TORSDOF 4
