REMARK  Name = 54687
REMARK  18 active torsions:
REMARK  status: ('A' for Active; 'I' for Inactive)
REMARK    1  A    between atoms: O_1  and  C_10
REMARK    2  A    between atoms: O_1  and  C_23
REMARK    3  A    between atoms: O_2  and  C_15
REMARK    4  A    between atoms: O_3  and  C_21
REMARK    5  A    between atoms: O_5  and  C_24
REMARK    6  A    between atoms: O_6  and  C_30
REMARK    7  A    between atoms: C_9  and  C_12
REMARK    8  A    between atoms: C_11  and  C_20
REMARK    9  A    between atoms: C_12  and  C_17
REMARK   10  A    between atoms: C_17  and  C_21
REMARK   11  A    between atoms: C_21  and  C_22
REMARK   12  A    between atoms: C_22  and  C_24
REMARK   13  A    between atoms: C_23  and  C_25
REMARK   14  A    between atoms: C_24  and  C_26
REMARK   15  A    between atoms: C_25  and  C_27
REMARK   16  A    between atoms: C_25  and  C_28
REMARK   17  A    between atoms: C_26  and  C_30
REMARK   18  A    between atoms: C_27  and  C_29
REMARK                            x       y       z     vdW  Elec       q    Type
REMARK                         _______ _______ _______ _____ _____    ______ ____
ROOT
ATOM      1  C   UNL     1       2.153  -1.410  -0.237  0.00  0.00    +0.000 C 
ATOM      2  C   UNL     1       0.647  -1.544   0.135  0.00  0.00    +0.000 C 
ATOM      3  C   UNL     1       2.510  -0.073  -0.935  0.00  0.00    +0.000 C 
ATOM      4  C   UNL     1       0.354  -2.909   0.825  0.00  0.00    +0.000 C 
ATOM      5  C   UNL     1       3.040  -1.658   0.983  0.00  0.00    +0.000 C 
ATOM      6  C   UNL     1       4.022   0.036  -1.130  0.00  0.00    +0.000 C 
ATOM      7  C   UNL     1       4.771  -0.009   0.204  0.00  0.00    +0.000 C 
ATOM      8  C   UNL     1       1.368  -3.202   1.900  0.00  0.00    +0.000 C 
ATOM      9  C   UNL     1       4.212  -1.022   1.162  0.00  0.00    +0.000 C 
ATOM     10  C   UNL     1       2.570  -2.617   1.966  0.00  0.00    +0.000 C 
ATOM     11  C   UNL     1       0.282  -4.104  -0.131  0.00  0.00    +0.000 C 
ENDROOT
BRANCH   7  12
ATOM     12  O   UNL     1       6.139  -0.304  -0.068  0.00  0.00    +0.000 OA
ATOM     13  H   UNL     1       6.188  -1.202  -0.439  0.00  0.00    +0.000 HD
ENDBRANCH   7  12
BRANCH   3  14
ATOM     14  O   UNL     1       2.072   1.051  -0.176  0.00  0.00    +0.000 OA
BRANCH  14  16
ATOM     15  O   UNL     1       2.449   2.528  -1.908  0.00  0.00    +0.000 OA
ATOM     16  C   UNL     1       2.356   2.277  -0.714  0.00  0.00    +0.000 C 
BRANCH  16  17
ATOM     17  C   UNL     1       2.571   3.289   0.399  0.00  0.00    +0.000 C 
ATOM     18  C   UNL     1       3.612   4.302  -0.067  0.00  0.00    +0.000 C 
BRANCH  17  19
ATOM     19  C   UNL     1       1.259   3.987   0.784  0.00  0.00    +0.000 C 
ATOM     20  C   UNL     1       0.195   3.009   1.267  0.00  0.00    +0.000 C 
ENDBRANCH  17  19
ENDBRANCH  16  17
ENDBRANCH  14  16
ENDBRANCH   3  14
BRANCH   2  21
ATOM     21  C   UNL     1      -0.282  -1.308  -1.062  0.00  0.00    +0.000 C 
BRANCH  21  22
ATOM     22  C   UNL     1      -1.743  -1.262  -0.617  0.00  0.00    +0.000 C 
BRANCH  22  23
ATOM     23  C   UNL     1      -2.726  -0.940  -1.750  0.00  0.00    +0.000 C 
BRANCH  23  24
ATOM     24  O   UNL     1      -2.520  -1.887  -2.801  0.00  0.00    +0.000 OA
ATOM     25  H   UNL     1      -2.722  -2.771  -2.449  0.00  0.00    +0.000 HD
ENDBRANCH  23  24
BRANCH  23  26
ATOM     26  C   UNL     1      -4.212  -0.959  -1.361  0.00  0.00    +0.000 C 
BRANCH  26  27
ATOM     27  C   UNL     1      -4.604   0.009  -0.238  0.00  0.00    +0.000 C 
BRANCH  27  28
ATOM     28  O   UNL     1      -4.341   1.349  -0.649  0.00  0.00    +0.000 OA
ATOM     29  H   UNL     1      -4.843   1.518  -1.464  0.00  0.00    +0.000 HD
ENDBRANCH  27  28
BRANCH  27  30
ATOM     30  C   UNL     1      -6.096  -0.106   0.074  0.00  0.00    +0.000 C 
BRANCH  30  32
ATOM     31  O   UNL     1      -5.769   1.272   2.032  0.00  0.00    +0.000 OA
ATOM     32  C   UNL     1      -6.507   0.886   1.135  0.00  0.00    +0.000 C 
BRANCH  32  33
ATOM     33  O   UNL     1      -7.782   1.321   0.979  0.00  0.00    +0.000 OA
ATOM     34  H   UNL     1      -8.034   1.971   1.669  0.00  0.00    +0.000 HD
ENDBRANCH  32  33
ENDBRANCH  30  32
ENDBRANCH  27  30
ENDBRANCH  26  27
ENDBRANCH  23  26
ENDBRANCH  22  23
ENDBRANCH  21  22
ENDBRANCH   2  21
TORSDOF 15
