REMARK  Name = 
REMARK  30 active torsions:
REMARK  status: ('A' for Active; 'I' for Inactive)
REMARK    1  A    between atoms: C_1  and  C_2
REMARK    2  A    between atoms: C_2  and  C_3
REMARK    3  A    between atoms: C_7  and  C_8
REMARK    4  A    between atoms: C_9  and  O_10
REMARK    5  A    between atoms: O_10  and  C_11
REMARK    6  A    between atoms: C_13  and  C_14
REMARK    7  A    between atoms: C_13  and  O_15
REMARK    8  A    between atoms: O_15  and  C_16
REMARK    9  A    between atoms: C_17  and  O_18
REMARK   10  A    between atoms: C_19  and  C_20
REMARK   11  A    between atoms: C_22  and  C_23
REMARK   12  A    between atoms: C_24  and  O_25
REMARK   13  A    between atoms: O_25  and  C_26
REMARK   14  A    between atoms: C_28  and  C_29
REMARK   15  A    between atoms: C_31  and  N_32
REMARK   16  A    between atoms: N_32  and  C_33
REMARK   17  A    between atoms: N_32  and  C_34
REMARK   18  A    between atoms: C_35  and  O_36
REMARK   19  A    between atoms: C_37  and  C_38
REMARK   20  A    between atoms: C_37  and  O_39
REMARK   21  A    between atoms: C_41  and  C_42
REMARK   22  A    between atoms: C_45  and  C_46
REMARK   23  A    between atoms: C_46  and  O_47
REMARK   24  A    between atoms: O_47  and  C_48
REMARK   25  A    between atoms: C_48  and  C_49
REMARK   26  A    between atoms: C_49  and  O_50
REMARK   27  A    between atoms: O_50  and  C_51
REMARK   28  A    between atoms: C_54  and  C_55
REMARK   29  A    between atoms: C_56  and  C_57
REMARK   30  A    between atoms: C_56  and  O_58
REMARK                            x       y       z     vdW  Elec       q    Type
REMARK                         _______ _______ _______ _____ _____    ______ ____
ROOT
ATOM      1  C   UNL     1       1.535  -3.528   0.041  0.00  0.00    +0.000 C 
ATOM      2  O   UNL     1       1.068  -2.145  -0.187  0.00  0.00    +0.000 OA
ATOM      3  C   UNL     1       0.004  -1.575  -0.037  0.00  0.00    +0.000 C 
ATOM      4  O   UNL     1       0.176  -0.907  -1.139  0.00  0.00    +0.000 OA
ATOM      5  C   UNL     1      -1.343  -2.329  -0.162  0.00  0.00    +0.000 C 
ATOM      6  C   UNL     1      -1.071  -2.862  -1.687  0.00  0.00    +0.000 C 
ATOM      7  C   UNL     1      -2.180  -0.900  -0.644  0.00  0.00    +0.000 C 
ATOM      8  C   UNL     1      -1.296   0.197   0.308  0.00  0.00    +0.000 C 
ATOM      9  C   UNL     1      -2.454   0.657   1.324  0.00  0.00    +0.000 C 
ATOM     10  C   UNL     1      -1.498   1.567  -0.674  0.00  0.00    +0.000 C 
ATOM     11  C   UNL     1       0.011   1.761  -1.264  0.00  0.00    +0.000 C 
ATOM     12  C   UNL     1       0.160   2.949  -2.051  0.00  0.00    +0.000 C 
ATOM     13  C   UNL     1       1.052   1.667  -0.226  0.00  0.00    +0.000 C 
ATOM     14  C   UNL     1       2.349   0.932  -0.872  0.00  0.00    +0.000 C 
ATOM     15  C   UNL     1       3.058   2.334  -1.254  0.00  0.00    +0.000 C 
ATOM     16  C   UNL     1       3.200   0.868   0.591  0.00  0.00    +0.000 C 
ATOM     17  N   UNL     1       4.632   0.745   0.001  0.00  0.00    +0.000 NA
ATOM     18  C   UNL     1       4.425  -0.028  -1.353  0.00  0.00    +0.000 C 
ATOM     19  O   UNL     1       4.601  -1.368  -0.627  0.00  0.00    +0.000 OA
ATOM     20  C   UNL     1       3.093  -1.444  -0.545  0.00  0.00    +0.000 C 
ATOM     21  C   UNL     1       2.907  -0.746   0.996  0.00  0.00    +0.000 C 
ATOM     22  C   UNL     1       4.362  -0.964   1.631  0.00  0.00    +0.000 C 
ATOM     23  C   UNL     1       3.091  -3.005  -0.090  0.00  0.00    +0.000 C 
ATOM     24  C   UNL     1       3.881  -3.373   0.986  0.00  0.00    +0.000 C 
ATOM     25  H   UNL     1       5.239   0.218   0.629  0.00  0.00    +0.000 HD
ENDROOT
BRANCH   1  27
ATOM     26  C   UNL     1       0.961  -3.143   1.851  0.00  0.00    +0.000 C 
ATOM     27  C   UNL     1       1.497  -3.279   1.678  0.00  0.00    +0.000 C 
ENDBRANCH   1  27
BRANCH  11  28
ATOM     28  O   UNL     1       0.138   0.708  -2.201  0.00  0.00    +0.000 OA
ATOM     29  H   UNL     1      -0.556   0.789  -2.875  0.00  0.00    +0.000 HD
ENDBRANCH  11  28
BRANCH  23  30
ATOM     30  O   UNL     1       3.488  -3.566  -1.320  0.00  0.00    +0.000 OA
ATOM     31  H   UNL     1       4.408  -3.320  -1.506  0.00  0.00    +0.000 HD
ENDBRANCH  23  30
BRANCH   7  32
ATOM     32  O   UNL     1      -3.290  -1.192   0.321  0.00  0.00    +0.000 OA
BRANCH  32  33
ATOM     33  C   UNL     1      -4.302  -1.614  -0.752  0.00  0.00    +0.000 C 
ATOM     34  C   UNL     1      -3.901  -3.214  -0.592  0.00  0.00    +0.000 C 
ATOM     35  C   UNL     1      -5.102  -3.999  -0.472  0.00  0.00    +0.000 C 
ATOM     36  C   UNL     1      -6.317  -3.593  -1.242  0.00  0.00    +0.000 C 
ATOM     37  C   UNL     1      -5.579  -3.921   1.090  0.00  0.00    +0.000 C 
ATOM     38  C   UNL     1      -4.786  -2.425   1.390  0.00  0.00    +0.000 C 
ATOM     39  C   UNL     1      -5.952  -1.971   2.444  0.00  0.00    +0.000 C 
ATOM     40  O   UNL     1      -5.460  -1.721   0.246  0.00  0.00    +0.000 OA
BRANCH  35  41
ATOM     41  O   UNL     1      -4.844  -5.314  -0.726  0.00  0.00    +0.000 OA
ATOM     42  C   UNL     1      -3.502  -5.602  -1.015  0.00  0.00    +0.000 C 
ENDBRANCH  35  41
BRANCH  37  43
ATOM     43  O   UNL     1      -4.364  -4.675   1.570  0.00  0.00    +0.000 OA
ATOM     44  H   UNL     1      -3.568  -4.302   1.159  0.00  0.00    +0.000 HD
ENDBRANCH  37  43
ENDBRANCH  32  33
ENDBRANCH   7  32
BRANCH  10  45
ATOM     45  O   UNL     1      -1.157   2.483   0.486  0.00  0.00    +0.000 OA
BRANCH  45  46
ATOM     46  C   UNL     1      -2.439   3.295   0.581  0.00  0.00    +0.000 C 
ATOM     47  O   UNL     1      -2.404   3.671  -0.896  0.00  0.00    +0.000 OA
ATOM     48  C   UNL     1      -3.595   4.606  -0.875  0.00  0.00    +0.000 C 
ATOM     49  C   UNL     1      -3.606   4.779  -2.509  0.00  0.00    +0.000 C 
ATOM     50  C   UNL     1      -2.598   5.907  -0.662  0.00  0.00    +0.000 C 
ATOM     51  C   UNL     1      -2.873   5.705   0.935  0.00  0.00    +0.000 C 
ATOM     52  C   UNL     1      -1.530   4.674   1.075  0.00  0.00    +0.000 C 
BRANCH  51  53
ATOM     53  N   UNL     1      -2.073   6.951   1.412  0.00  0.00    +0.000 NA
ATOM     54  C   UNL     1      -1.888   7.876   0.352  0.00  0.00    +0.000 C 
ATOM     55  C   UNL     1      -3.183   7.526   2.191  0.00  0.00    +0.000 C 
ENDBRANCH  51  53
BRANCH  52  56
ATOM     56  O   UNL     1      -1.844   4.397   2.509  0.00  0.00    +0.000 OA
ATOM     57  H   UNL     1      -2.790   4.204   2.601  0.00  0.00    +0.000 HD
ENDBRANCH  52  56
ENDBRANCH  45  46
ENDBRANCH  10  45
BRANCH  18  58
ATOM     58  C   UNL     1       6.015   0.140  -1.774  0.00  0.00    +0.000 C 
BRANCH  58  59
ATOM     59  O   UNL     1       6.784  -0.182  -0.724  0.00  0.00    +0.000 OA
BRANCH  59  60
ATOM     60  C   UNL     1       7.599   0.833  -0.215  0.00  0.00    +0.000 C 
BRANCH  60  61
ATOM     61  C   UNL     1       8.848   0.171   0.360  0.00  0.00    +0.000 C 
BRANCH  61  62
ATOM     62  O   UNL     1       8.405  -0.814   1.227  0.00  0.00    +0.000 OA
ATOM     63  C   UNL     1       9.089  -2.003   1.057  0.00  0.00    +0.000 C 
ENDBRANCH  61  62
ENDBRANCH  60  61
ENDBRANCH  59  60
ENDBRANCH  58  59
ENDBRANCH  18  58
TORSDOF 16
