REMARK  Name = 448537
REMARK  8 active torsions:
REMARK  status: ('A' for Active; 'I' for Inactive)
REMARK    1  A    between atoms: O_1  and  C_19
REMARK    2  A    between atoms: O_2  and  C_20
REMARK    3  A    between atoms: C_3  and  C_5
REMARK    4  A    between atoms: C_3  and  C_7
REMARK    5  A    between atoms: C_4  and  C_6
REMARK    6  A    between atoms: C_4  and  C_8
REMARK    7  A    between atoms: C_5  and  C_9
REMARK    8  A    between atoms: C_6  and  C_10
REMARK                            x       y       z     vdW  Elec       q    Type
REMARK                         _______ _______ _______ _____ _____    ______ ____
ROOT
ATOM      1  C   UNL     1      -0.434  -0.522  -0.129  0.00  0.00    +0.000 C 
ATOM      2  C   UNL     1       0.434   0.521  -0.129  0.00  0.00    +0.000 C 
ENDROOT
BRANCH   1   3
ATOM      3  C   UNL     1      -1.902  -0.317  -0.129  0.00  0.00    +0.000 A 
ATOM      4  C   UNL     1      -2.566  -0.225  -1.336  0.00  0.00    +0.000 A 
ATOM      5  C   UNL     1      -2.565  -0.225   1.080  0.00  0.00    +0.000 A 
ATOM      6  C   UNL     1      -3.948  -0.033  -1.335  0.00  0.00    +0.000 A 
ATOM      7  C   UNL     1      -3.946  -0.033   1.081  0.00  0.00    +0.000 A 
ATOM      8  C   UNL     1      -4.638   0.063  -0.127  0.00  0.00    +0.000 A 
BRANCH   8   9
ATOM      9  O   UNL     1      -5.986   0.250  -0.127  0.00  0.00    +0.000 OA
ATOM     10  H   UNL     1      -6.298   0.293  -1.047  0.00  0.00    +0.000 HD
ENDBRANCH   8   9
ENDBRANCH   1   3
BRANCH   2  11
ATOM     11  C   UNL     1       1.902   0.317  -0.129  0.00  0.00    +0.000 A 
ATOM     12  C   UNL     1       2.566   0.224  -1.337  0.00  0.00    +0.000 A 
ATOM     13  C   UNL     1       2.564   0.226   1.079  0.00  0.00    +0.000 A 
ATOM     14  C   UNL     1       3.948   0.032  -1.335  0.00  0.00    +0.000 A 
ATOM     15  C   UNL     1       3.946   0.034   1.081  0.00  0.00    +0.000 A 
ATOM     16  C   UNL     1       4.638  -0.063  -0.127  0.00  0.00    +0.000 A 
BRANCH  16  17
ATOM     17  O   UNL     1       5.986  -0.250  -0.127  0.00  0.00    +0.000 OA
ATOM     18  H   UNL     1       6.298  -0.293   0.794  0.00  0.00    +0.000 HD
ENDBRANCH  16  17
ENDBRANCH   2  11
BRANCH   1  19
ATOM     19  C   UNL     1      -0.017  -1.979  -0.182  0.00  0.00    +0.000 C 
ATOM     20  C   UNL     1       0.189  -2.572   1.206  0.00  0.00    +0.000 C 
ENDBRANCH   1  19
BRANCH   2  21
ATOM     21  C   UNL     1       0.017   1.978  -0.183  0.00  0.00    +0.000 C 
ATOM     22  C   UNL     1      -0.188   2.572   1.205  0.00  0.00    +0.000 C 
ENDBRANCH   2  21
TORSDOF 6
