REMARK  Name = 
REMARK  26 active torsions:
REMARK  status: ('A' for Active; 'I' for Inactive)
REMARK    1  A    between atoms: C_1  and  C_2
REMARK    2  A    between atoms: C_2  and  C_3
REMARK    3  A    between atoms: C_7  and  C_8
REMARK    4  A    between atoms: C_9  and  O_10
REMARK    5  A    between atoms: O_10  and  C_11
REMARK    6  A    between atoms: C_13  and  C_14
REMARK    7  A    between atoms: C_13  and  O_15
REMARK    8  A    between atoms: O_15  and  C_16
REMARK    9  A    between atoms: C_17  and  O_18
REMARK   10  A    between atoms: C_19  and  C_20
REMARK   11  A    between atoms: C_22  and  C_23
REMARK   12  A    between atoms: C_24  and  O_25
REMARK   13  A    between atoms: O_25  and  C_26
REMARK   14  A    between atoms: C_28  and  C_29
REMARK   15  A    between atoms: C_31  and  N_32
REMARK   16  A    between atoms: N_32  and  C_33
REMARK   17  A    between atoms: N_32  and  C_34
REMARK   18  A    between atoms: C_35  and  O_36
REMARK   19  A    between atoms: C_37  and  C_38
REMARK   20  A    between atoms: C_37  and  O_39
REMARK   21  A    between atoms: O_39  and  C_40
REMARK   22  A    between atoms: C_42  and  C_43
REMARK   23  A    between atoms: C_46  and  C_47
REMARK   24  A    between atoms: C_48  and  O_49
REMARK   25  A    between atoms: C_50  and  C_51
REMARK   26  A    between atoms: C_50  and  O_52
REMARK                            x       y       z     vdW  Elec       q    Type
REMARK                         _______ _______ _______ _____ _____    ______ ____
ROOT
ATOM      1  C   UNL     1       4.022   1.690   0.087  0.00  0.00    +0.000 C 
ATOM      2  O   UNL     1       2.767   0.896  -0.331  0.00  0.00    +0.000 OA
ATOM      3  C   UNL     1       1.970   0.987   0.713  0.00  0.00    +0.000 C 
ATOM      4  O   UNL     1       1.468   0.324   1.616  0.00  0.00    +0.000 OA
ATOM      5  C   UNL     1       1.080   2.221   0.301  0.00  0.00    +0.000 C 
ATOM      6  C   UNL     1       1.078   2.693   1.862  0.00  0.00    +0.000 C 
ATOM      7  C   UNL     1      -0.364   1.294   0.351  0.00  0.00    +0.000 C 
ATOM      8  C   UNL     1       0.113   0.154  -0.810  0.00  0.00    +0.000 C 
ATOM      9  C   UNL     1      -1.130   0.383  -1.801  0.00  0.00    +0.000 C 
ATOM     10  C   UNL     1      -0.472  -1.217   0.032  0.00  0.00    +0.000 C 
ATOM     11  C   UNL     1       0.543  -2.352  -0.524  0.00  0.00    +0.000 C 
ATOM     12  C   UNL     1      -0.088  -3.230  -1.542  0.00  0.00    +0.000 C 
ATOM     13  C   UNL     1       1.857  -2.131  -0.883  0.00  0.00    +0.000 C 
ATOM     14  C   UNL     1       2.847  -3.171  -0.075  0.00  0.00    +0.000 C 
ATOM     15  C   UNL     1       2.343  -4.473  -0.929  0.00  0.00    +0.000 C 
ATOM     16  C   UNL     1       4.150  -2.970  -0.985  0.00  0.00    +0.000 C 
ATOM     17  O   UNL     1       4.024  -2.776  -2.134  0.00  0.00    +0.000 OA
ATOM     18  C   UNL     1       5.239  -1.981  -0.366  0.00  0.00    +0.000 C 
ATOM     19  C   UNL     1       5.334  -2.790   1.036  0.00  0.00    +0.000 C 
ATOM     20  C   UNL     1       3.996  -0.874   0.028  0.00  0.00    +0.000 C 
ATOM     21  C   UNL     1       4.967   0.377   0.413  0.00  0.00    +0.000 C 
ATOM     22  C   UNL     1       6.146   0.380  -0.397  0.00  0.00    +0.000 C 
ENDROOT
BRANCH   1  24
ATOM     23  C   UNL     1       5.189   2.678  -1.425  0.00  0.00    +0.000 C 
ATOM     24  C   UNL     1       4.545   1.856  -1.465  0.00  0.00    +0.000 C 
ENDBRANCH   1  24
BRANCH  11  25
ATOM     25  O   UNL     1       0.546  -3.146   0.650  0.00  0.00    +0.000 OA
ATOM     26  C   UNL     1       1.031  -2.481   1.764  0.00  0.00    +0.000 C 
ENDBRANCH  11  25
BRANCH  20  27
ATOM     27  O   UNL     1       3.784  -1.379   1.442  0.00  0.00    +0.000 OA
ATOM     28  H   UNL     1       4.641  -1.454   1.891  0.00  0.00    +0.000 HD
ENDBRANCH  20  27
BRANCH  21  29
ATOM     29  O   UNL     1       5.167   0.404   1.741  0.00  0.00    +0.000 OA
ATOM     30  H   UNL     1       5.721  -0.349   2.000  0.00  0.00    +0.000 HD
ENDBRANCH  21  29
BRANCH   7  31
ATOM     31  O   UNL     1      -1.011   2.275  -0.576  0.00  0.00    +0.000 OA
BRANCH  31  32
ATOM     32  C   UNL     1      -0.834   3.586   0.197  0.00  0.00    +0.000 C 
ATOM     33  C   UNL     1      -1.878   4.345  -0.843  0.00  0.00    +0.000 C 
ATOM     34  C   UNL     1      -2.604   5.333  -0.297  0.00  0.00    +0.000 C 
ATOM     35  C   UNL     1      -2.039   6.755  -0.488  0.00  0.00    +0.000 C 
ATOM     36  C   UNL     1      -3.329   5.296   1.145  0.00  0.00    +0.000 C 
ATOM     37  C   UNL     1      -2.139   4.408   2.035  0.00  0.00    +0.000 C 
ATOM     38  C   UNL     1      -0.957   5.403   1.482  0.00  0.00    +0.000 C 
ATOM     39  O   UNL     1      -2.011   3.249   1.093  0.00  0.00    +0.000 OA
BRANCH  34  40
ATOM     40  O   UNL     1      -3.770   5.445  -1.091  0.00  0.00    +0.000 OA
ATOM     41  C   UNL     1      -4.554   6.446  -0.512  0.00  0.00    +0.000 C 
ENDBRANCH  34  40
BRANCH  36  42
ATOM     42  O   UNL     1      -4.142   4.058   0.834  0.00  0.00    +0.000 OA
ATOM     43  H   UNL     1      -3.559   3.369   0.479  0.00  0.00    +0.000 HD
ENDBRANCH  36  42
ENDBRANCH  31  32
ENDBRANCH   7  31
BRANCH  10  44
ATOM     44  O   UNL     1      -1.560  -1.594  -0.956  0.00  0.00    +0.000 OA
BRANCH  44  45
ATOM     45  C   UNL     1      -2.811  -1.588  -0.090  0.00  0.00    +0.000 C 
ATOM     46  O   UNL     1      -2.228  -2.634   0.851  0.00  0.00    +0.000 OA
ATOM     47  C   UNL     1      -3.553  -2.337   1.554  0.00  0.00    +0.000 C 
ATOM     48  C   UNL     1      -2.941  -2.711   3.032  0.00  0.00    +0.000 C 
ATOM     49  C   UNL     1      -3.929  -3.882   1.151  0.00  0.00    +0.000 C 
ATOM     50  C   UNL     1      -4.762  -3.367  -0.153  0.00  0.00    +0.000 C 
ATOM     51  C   UNL     1      -3.514  -2.756  -1.136  0.00  0.00    +0.000 C 
BRANCH  50  52
ATOM     52  N   UNL     1      -4.713  -4.769  -0.844  0.00  0.00    +0.000 NA
ATOM     53  C   UNL     1      -3.882  -4.832  -1.957  0.00  0.00    +0.000 C 
ATOM     54  C   UNL     1      -4.524  -5.813   0.057  0.00  0.00    +0.000 C 
ENDBRANCH  50  52
BRANCH  51  55
ATOM     55  O   UNL     1      -4.469  -1.682  -1.596  0.00  0.00    +0.000 OA
ATOM     56  H   UNL     1      -4.875  -1.257  -0.823  0.00  0.00    +0.000 HD
ENDBRANCH  51  55
ENDBRANCH  44  45
ENDBRANCH  10  44
TORSDOF 12
