REMARK  Name = 5281004
REMARK  9 active torsions:
REMARK  status: ('A' for Active; 'I' for Inactive)
REMARK    1  A    between atoms: O_3  and  C_15
REMARK    2  A    between atoms: O_5  and  C_26
REMARK    3  A    between atoms: C_7  and  C_18
REMARK    4  A    between atoms: C_10  and  C_21
REMARK    5  A    between atoms: C_16  and  C_23
REMARK    6  A    between atoms: C_21  and  C_26
REMARK    7  A    between atoms: C_22  and  C_25
REMARK    8  A    between atoms: C_25  and  C_30
REMARK    9  A    between atoms: C_30  and  C_31
REMARK                            x       y       z     vdW  Elec       q    Type
REMARK                         _______ _______ _______ _____ _____    ______ ____
ROOT
ATOM      1  O   UNL     1      -2.776  -0.761   0.522  0.00  0.00    +0.000 OA
ATOM      2  O   UNL     1      -3.387  -1.309  -1.674  0.00  0.00    +0.000 OA
ATOM      3  O   UNL     1       6.315  -1.886   1.058  0.00  0.00    +0.000 OA
ATOM      4  C   UNL     1      -1.259   1.073  -0.147  0.00  0.00    +0.000 C 
ATOM      5  C   UNL     1      -0.468   0.079  -1.027  0.00  0.00    +0.000 C 
ATOM      6  C   UNL     1       1.005   0.468  -1.213  0.00  0.00    +0.000 C 
ATOM      7  C   UNL     1      -2.669   0.436  -0.242  0.00  0.00    +0.000 C 
ATOM      8  C   UNL     1       1.698   0.506   0.196  0.00  0.00    +0.000 C 
ATOM      9  C   UNL     1      -1.355  -0.091  -2.263  0.00  0.00    +0.000 C 
ATOM     10  C   UNL     1      -2.791  -0.015  -1.702  0.00  0.00    +0.000 C 
ATOM     11  C   UNL     1      -0.613   1.063   1.251  0.00  0.00    +0.000 C 
ATOM     12  C   UNL     1       0.901   1.369   1.226  0.00  0.00    +0.000 C 
ATOM     13  C   UNL     1       3.247   0.798   0.086  0.00  0.00    +0.000 C 
ATOM     14  C   UNL     1       1.709  -0.529  -2.151  0.00  0.00    +0.000 C 
ATOM     15  C   UNL     1      -1.302   2.512  -0.729  0.00  0.00    +0.000 C 
ATOM     16  C   UNL     1       3.205  -0.266  -2.262  0.00  0.00    +0.000 C 
ATOM     17  C   UNL     1       3.832  -0.228  -0.892  0.00  0.00    +0.000 C 
ATOM     18  C   UNL     1      -3.474  -1.691  -0.303  0.00  0.00    +0.000 C 
ATOM     19  C   UNL     1       3.590   2.209  -0.445  0.00  0.00    +0.000 C 
ATOM     20  C   UNL     1       3.897   0.684   1.456  0.00  0.00    +0.000 C 
ATOM     21  C   UNL     1       4.813  -1.087  -0.574  0.00  0.00    +0.000 C 
ATOM     22  C   UNL     1       4.873  -0.169   1.780  0.00  0.00    +0.000 C 
ATOM     23  C   UNL     1       5.409  -1.108   0.778  0.00  0.00    +0.000 C 
ENDROOT
BRANCH  12  24
ATOM     24  O   UNL     1       1.072   2.761   1.001  0.00  0.00    +0.000 OA
ATOM     25  H   UNL     1       0.619   3.237   1.716  0.00  0.00    +0.000 HD
ENDBRANCH  12  24
BRANCH   7  27
ATOM     26  O   UNL     1      -4.713   1.628  -0.533  0.00  0.00    +0.000 OA
ATOM     27  C   UNL     1      -3.792   1.317   0.221  0.00  0.00    +0.000 C 
BRANCH  27  28
ATOM     28  C   UNL     1      -3.722   1.793   1.656  0.00  0.00    +0.000 C 
BRANCH  28  29
ATOM     29  O   UNL     1      -5.019   1.976   2.184  0.00  0.00    +0.000 OA
ATOM     30  H   UNL     1      -5.448   1.103   2.217  0.00  0.00    +0.000 HD
ENDBRANCH  28  29
ENDBRANCH  27  28
ENDBRANCH   7  27
BRANCH  18  31
ATOM     31  C   UNL     1      -2.886  -3.076  -0.119  0.00  0.00    +0.000 C 
BRANCH  31  32
ATOM     32  C   UNL     1      -2.978  -3.539   1.336  0.00  0.00    +0.000 C 
ATOM     33  C   UNL     1      -2.362  -4.916   1.526  0.00  0.00    +0.000 C 
ENDBRANCH  31  32
ENDBRANCH  18  31
TORSDOF 6
