REMARK  Name = 4659569
REMARK  6 active torsions:
REMARK  status: ('A' for Active; 'I' for Inactive)
REMARK    1  A    between atoms: O_2  and  C_13
REMARK    2  A    between atoms: O_3  and  C_17
REMARK    3  A    between atoms: N_6  and  C_12
REMARK    4  A    between atoms: C_7  and  C_9
REMARK    5  A    between atoms: C_8  and  C_9
REMARK    6  A    between atoms: C_14  and  C_20
REMARK                            x       y       z     vdW  Elec       q    Type
REMARK                         _______ _______ _______ _____ _____    ______ ____
ROOT
ATOM      1  C   UNL     1      -0.443   0.511   0.688  0.00  0.00    +0.000 A 
ATOM      2  C   UNL     1      -1.185  -0.647   0.659  0.00  0.00    +0.000 A 
ATOM      3  C   UNL     1      -0.891   1.698   0.159  0.00  0.00    +0.000 A 
ATOM      4  C   UNL     1      -2.448  -0.615   0.068  0.00  0.00    +0.000 A 
ATOM      5  C   UNL     1      -2.154   1.730  -0.433  0.00  0.00    +0.000 A 
ATOM      6  C   UNL     1      -2.933   0.573  -0.478  0.00  0.00    +0.000 A 
ENDROOT
BRANCH   4   9
ATOM      7  O   UNL     1      -2.756  -2.853   0.533  0.00  0.00    +0.000 OA
ATOM      8  O   UNL     1      -4.361  -1.769  -0.501  0.00  0.00    +0.000 OA
ATOM      9  N   UNL     1      -3.227  -1.804   0.031  0.00  0.00    +0.000 N 
ENDBRANCH   4   9
BRANCH   1  11
ATOM     10  O   UNL     1       0.977   0.727   2.534  0.00  0.00    +0.000 OA
ATOM     11  C   UNL     1       0.910   0.477   1.321  0.00  0.00    +0.000 C 
BRANCH  11  12
ATOM     12  C   UNL     1       2.115   0.166   0.569  0.00  0.00    +0.000 A 
ATOM     13  C   UNL     1       4.428  -0.430  -0.874  0.00  0.00    +0.000 A 
ATOM     14  C   UNL     1       2.033  -0.115  -0.795  0.00  0.00    +0.000 A 
ATOM     15  C   UNL     1       3.353   0.149   1.211  0.00  0.00    +0.000 A 
ATOM     16  C   UNL     1       3.189  -0.413  -1.516  0.00  0.00    +0.000 A 
ATOM     17  C   UNL     1       4.510  -0.149   0.490  0.00  0.00    +0.000 A 
ATOM     18  C   UNL     1       5.663  -0.750  -1.645  0.00  0.00    +0.000 C 
ENDBRANCH  11  12
ENDBRANCH   1  11
BRANCH   5  19
ATOM     19  O   UNL     1      -2.615   2.898  -0.962  0.00  0.00    +0.000 OA
ATOM     20  H   UNL     1      -3.294   2.707  -1.630  0.00  0.00    +0.000 HD
ENDBRANCH   5  19
BRANCH   6  21
ATOM     21  O   UNL     1      -4.167   0.617  -1.059  0.00  0.00    +0.000 OA
ATOM     22  H   UNL     1      -4.507   1.525  -1.034  0.00  0.00    +0.000 HD
ENDBRANCH   6  21
TORSDOF 5
