REMARK  Name = 13308
REMARK  3 active torsions:
REMARK  status: ('A' for Active; 'I' for Inactive)
REMARK    1  A    between atoms: O_1  and  C_8
REMARK    2  A    between atoms: C_4  and  C_14
REMARK    3  A    between atoms: C_11  and  C_17
REMARK                            x       y       z     vdW  Elec       q    Type
REMARK                         _______ _______ _______ _____ _____    ______ ____
ROOT
ATOM      1  O   UNL     1      -5.406   0.054   1.259  0.00  0.00    +0.000 OA
ATOM      2  C   UNL     1       1.931   0.722   0.374  0.00  0.00    +0.000 C 
ATOM      3  C   UNL     1       2.736  -0.548   0.036  0.00  0.00    +0.000 C 
ATOM      4  C   UNL     1       0.589   0.783  -0.362  0.00  0.00    +0.000 C 
ATOM      5  C   UNL     1      -0.271  -0.460   0.054  0.00  0.00    +0.000 C 
ATOM      6  C   UNL     1       1.924  -1.762   0.501  0.00  0.00    +0.000 C 
ATOM      7  C   UNL     1       4.006  -0.266   0.861  0.00  0.00    +0.000 C 
ATOM      8  C   UNL     1       0.522  -1.786  -0.135  0.00  0.00    +0.000 C 
ATOM      9  C   UNL     1       2.942   1.848   0.175  0.00  0.00    +0.000 C 
ATOM     10  C   UNL     1      -1.694  -0.450  -0.620  0.00  0.00    +0.000 C 
ATOM     11  C   UNL     1      -0.157   2.092  -0.062  0.00  0.00    +0.000 C 
ATOM     12  C   UNL     1       4.279   1.232   0.627  0.00  0.00    +0.000 C 
ATOM     13  C   UNL     1       3.085  -0.708  -1.466  0.00  0.00    +0.000 C 
ATOM     14  C   UNL     1      -1.527   2.126  -0.731  0.00  0.00    +0.000 C 
ATOM     15  C   UNL     1      -2.335   0.914  -0.340  0.00  0.00    +0.000 C 
ATOM     16  C   UNL     1      -1.626  -0.673  -2.148  0.00  0.00    +0.000 C 
ATOM     17  C   UNL     1      -2.549  -1.583  -0.068  0.00  0.00    +0.000 C 
ATOM     18  C   UNL     1      -3.522   1.068   0.267  0.00  0.00    +0.000 C 
ATOM     19  C   UNL     1      -3.730  -1.435   0.538  0.00  0.00    +0.000 C 
ATOM     20  C   UNL     1      -4.310  -0.093   0.728  0.00  0.00    +0.000 C 
ENDROOT
BRANCH   7  21
ATOM     21  O   UNL     1       5.113  -1.076   0.516  0.00  0.00    +0.000 OA
ATOM     22  H   UNL     1       4.848  -2.002   0.643  0.00  0.00    +0.000 HD
ENDBRANCH   7  21
TORSDOF 1
