REMARK  Name = 5577
REMARK  15 active torsions:
REMARK  status: ('A' for Active; 'I' for Inactive)
REMARK    1  A    between atoms: O_1  and  C_11
REMARK    2  A    between atoms: O_1  and  C_12
REMARK    3  A    between atoms: O_2  and  C_21
REMARK    4  A    between atoms: O_2  and  C_26
REMARK    5  A    between atoms: O_3  and  C_22
REMARK    6  A    between atoms: O_3  and  C_27
REMARK    7  A    between atoms: O_4  and  C_23
REMARK    8  A    between atoms: O_4  and  C_28
REMARK    9  A    between atoms: N_6  and  C_8
REMARK   10  A    between atoms: N_6  and  C_24
REMARK   11  A    between atoms: N_6  and  C_25
REMARK   12  A    between atoms: N_7  and  C_10
REMARK   13  A    between atoms: C_8  and  C_11
REMARK   14  A    between atoms: C_9  and  C_10
REMARK   15  A    between atoms: C_13  and  C_18
REMARK                            x       y       z     vdW  Elec       q    Type
REMARK                         _______ _______ _______ _____ _____    ______ ____
ROOT
ATOM      1  O   UNL     1      -1.477   1.851   1.926  0.00  0.00    +0.000 OA
ATOM      2  N   UNL     1      -0.877   2.092  -0.302  0.00  0.00    +0.000 N 
ATOM      3  C   UNL     1      -1.637   1.576   0.739  0.00  0.00    +0.000 C 
ATOM      4  H   UNL     1      -1.002   1.756  -1.250  0.00  0.00    +0.000 HD
ENDROOT
BRANCH   3   5
ATOM      5  C   UNL     1      -2.694   0.606   0.355  0.00  0.00    +0.000 A 
ATOM      6  C   UNL     1      -3.268   0.666  -0.914  0.00  0.00    +0.000 A 
ATOM      7  C   UNL     1      -3.115  -0.364   1.266  0.00  0.00    +0.000 A 
ATOM      8  C   UNL     1      -4.109  -1.274   0.906  0.00  0.00    +0.000 A 
ATOM      9  C   UNL     1      -4.262  -0.244  -1.274  0.00  0.00    +0.000 A 
ATOM     10  C   UNL     1      -4.683  -1.214  -0.364  0.00  0.00    +0.000 A 
BRANCH   8  11
ATOM     11  O   UNL     1      -4.512  -2.215   1.804  0.00  0.00    +0.000 OA
ATOM     12  C   UNL     1      -3.874  -2.208   3.080  0.00  0.00    +0.000 C 
ENDBRANCH   8  11
BRANCH   9  13
ATOM     13  O   UNL     1      -4.814  -0.174  -2.517  0.00  0.00    +0.000 OA
ATOM     14  C   UNL     1      -4.328   0.846  -3.387  0.00  0.00    +0.000 C 
ENDBRANCH   9  13
BRANCH  10  15
ATOM     15  O   UNL     1      -5.654  -2.104  -0.716  0.00  0.00    +0.000 OA
ATOM     16  C   UNL     1      -7.003  -1.730  -0.447  0.00  0.00    +0.000 C 
ENDBRANCH  10  15
ENDBRANCH   3   5
BRANCH   2  17
ATOM     17  C   UNL     1       0.201   3.024  -0.088  0.00  0.00    +0.000 C 
BRANCH  17  18
ATOM     18  C   UNL     1       1.509   2.340   0.121  0.00  0.00    +0.000 A 
ATOM     19  C   UNL     1       3.957   1.061   0.514  0.00  0.00    +0.000 A 
ATOM     20  C   UNL     1       1.913   1.988   1.409  0.00  0.00    +0.000 A 
ATOM     21  C   UNL     1       2.329   2.053  -0.970  0.00  0.00    +0.000 A 
ATOM     22  C   UNL     1       3.137   1.348   1.605  0.00  0.00    +0.000 A 
ATOM     23  C   UNL     1       3.553   1.414  -0.774  0.00  0.00    +0.000 A 
BRANCH  19  24
ATOM     24  O   UNL     1       5.160   0.433   0.707  0.00  0.00    +0.000 OA
BRANCH  24  25
ATOM     25  C   UNL     1       5.628  -0.394  -0.351  0.00  0.00    +0.000 C 
BRANCH  25  26
ATOM     26  C   UNL     1       6.485  -1.502   0.239  0.00  0.00    +0.000 C 
BRANCH  26  27
ATOM     27  N   UNL     1       6.976  -2.391  -0.814  0.00  0.00    +0.000 NA
ATOM     28  C   UNL     1       8.120  -1.790  -1.498  0.00  0.00    +0.000 C 
ATOM     29  C   UNL     1       7.340  -3.693  -0.256  0.00  0.00    +0.000 C 
ENDBRANCH  26  27
ENDBRANCH  25  26
ENDBRANCH  24  25
ENDBRANCH  19  24
ENDBRANCH  17  18
ENDBRANCH   2  17
TORSDOF 10
