REMARK  Name = 64727
REMARK  18 active torsions:
REMARK  status: ('A' for Active; 'I' for Inactive)
REMARK    1  A    between atoms: O_1  and  C_9
REMARK    2  A    between atoms: O_1  and  C_23
REMARK    3  A    between atoms: O_2  and  C_21
REMARK    4  A    between atoms: O_4  and  C_25
REMARK    5  A    between atoms: O_5  and  C_30
REMARK    6  A    between atoms: C_8  and  C_12
REMARK    7  A    between atoms: C_10  and  C_19
REMARK    8  A    between atoms: C_12  and  C_18
REMARK    9  A    between atoms: C_14  and  C_20
REMARK   10  A    between atoms: C_18  and  C_21
REMARK   11  A    between atoms: C_21  and  C_22
REMARK   12  A    between atoms: C_22  and  C_25
REMARK   13  A    between atoms: C_23  and  C_24
REMARK   14  A    between atoms: C_24  and  C_26
REMARK   15  A    between atoms: C_24  and  C_28
REMARK   16  A    between atoms: C_25  and  C_27
REMARK   17  A    between atoms: C_26  and  C_29
REMARK   18  A    between atoms: C_27  and  C_30
REMARK                            x       y       z     vdW  Elec       q    Type
REMARK                         _______ _______ _______ _____ _____    ______ ____
ROOT
ATOM      1  C   UNL     1       1.113   1.509   0.369  0.00  0.00    +0.000 C 
ATOM      2  C   UNL     1       0.143   0.922  -0.698  0.00  0.00    +0.000 C 
ATOM      3  C   UNL     1       1.998   0.438   1.048  0.00  0.00    +0.000 C 
ATOM      4  C   UNL     1      -0.737   2.038  -1.335  0.00  0.00    +0.000 C 
ATOM      5  C   UNL     1       1.948   2.640  -0.223  0.00  0.00    +0.000 C 
ATOM      6  C   UNL     1       3.063   1.082   1.941  0.00  0.00    +0.000 C 
ATOM      7  C   UNL     1       3.964   2.082   1.194  0.00  0.00    +0.000 C 
ATOM      8  C   UNL     1       3.217   2.878   0.157  0.00  0.00    +0.000 C 
ATOM      9  C   UNL     1       0.100   3.228  -1.728  0.00  0.00    +0.000 C 
ATOM     10  C   UNL     1       1.317   3.477  -1.229  0.00  0.00    +0.000 C 
ATOM     11  C   UNL     1      -1.898   2.513  -0.455  0.00  0.00    +0.000 C 
ATOM     12  C   UNL     1       5.177   1.401   0.555  0.00  0.00    +0.000 C 
ENDROOT
BRANCH   3  13
ATOM     13  O   UNL     1       2.611  -0.394   0.069  0.00  0.00    +0.000 OA
BRANCH  13  15
ATOM     14  O   UNL     1       3.617  -1.631   1.736  0.00  0.00    +0.000 OA
ATOM     15  C   UNL     1       3.403  -1.401   0.553  0.00  0.00    +0.000 C 
BRANCH  15  16
ATOM     16  C   UNL     1       4.008  -2.181  -0.601  0.00  0.00    +0.000 C 
ATOM     17  C   UNL     1       5.525  -2.025  -0.543  0.00  0.00    +0.000 C 
BRANCH  16  18
ATOM     18  C   UNL     1       3.606  -3.662  -0.549  0.00  0.00    +0.000 C 
ATOM     19  C   UNL     1       2.097  -3.861  -0.617  0.00  0.00    +0.000 C 
ENDBRANCH  16  18
ENDBRANCH  15  16
ENDBRANCH  13  15
ENDBRANCH   3  13
BRANCH   2  20
ATOM     20  C   UNL     1      -0.710  -0.231  -0.158  0.00  0.00    +0.000 C 
BRANCH  20  21
ATOM     21  C   UNL     1      -1.501  -0.898  -1.283  0.00  0.00    +0.000 C 
BRANCH  21  22
ATOM     22  C   UNL     1      -2.310  -2.120  -0.830  0.00  0.00    +0.000 C 
BRANCH  22  23
ATOM     23  O   UNL     1      -1.392  -3.131  -0.406  0.00  0.00    +0.000 OA
ATOM     24  H   UNL     1      -0.818  -3.341  -1.162  0.00  0.00    +0.000 HD
ENDBRANCH  22  23
BRANCH  22  25
ATOM     25  C   UNL     1      -3.313  -1.864   0.306  0.00  0.00    +0.000 C 
BRANCH  25  26
ATOM     26  C   UNL     1      -4.376  -0.800   0.009  0.00  0.00    +0.000 C 
BRANCH  26  27
ATOM     27  O   UNL     1      -5.166  -1.210  -1.104  0.00  0.00    +0.000 OA
ATOM     28  H   UNL     1      -4.608  -1.160  -1.898  0.00  0.00    +0.000 HD
ENDBRANCH  26  27
BRANCH  26  29
ATOM     29  C   UNL     1      -5.305  -0.619   1.210  0.00  0.00    +0.000 C 
BRANCH  29  31
ATOM     30  O   UNL     1      -6.255   1.335   0.151  0.00  0.00    +0.000 OA
ATOM     31  C   UNL     1      -6.394   0.383   0.908  0.00  0.00    +0.000 C 
BRANCH  31  32
ATOM     32  O   UNL     1      -7.553   0.105   1.554  0.00  0.00    +0.000 OA
ATOM     33  H   UNL     1      -8.255   0.758   1.344  0.00  0.00    +0.000 HD
ENDBRANCH  31  32
ENDBRANCH  29  31
ENDBRANCH  26  29
ENDBRANCH  25  26
ENDBRANCH  22  25
ENDBRANCH  21  22
ENDBRANCH  20  21
ENDBRANCH   2  20
TORSDOF 14
