REMARK  Name = 65094
REMARK  12 active torsions:
REMARK  status: ('A' for Active; 'I' for Inactive)
REMARK    1  A    between atoms: O_1  and  C_23
REMARK    2  A    between atoms: O_2  and  C_27
REMARK    3  A    between atoms: C_3  and  C_15
REMARK    4  A    between atoms: C_7  and  C_14
REMARK    5  A    between atoms: C_9  and  C_19
REMARK    6  A    between atoms: C_14  and  C_22
REMARK    7  A    between atoms: C_14  and  C_24
REMARK    8  A    between atoms: C_22  and  C_25
REMARK    9  A    between atoms: C_25  and  C_26
REMARK   10  A    between atoms: C_26  and  C_27
REMARK   11  A    between atoms: C_27  and  C_28
REMARK   12  A    between atoms: C_27  and  C_29
REMARK                            x       y       z     vdW  Elec       q    Type
REMARK                         _______ _______ _______ _____ _____    ______ ____
ROOT
ATOM      1  C   UNL     1      -0.469   1.169  -0.219  0.00  0.00    +0.000 C 
ATOM      2  C   UNL     1       0.172   0.015  -1.016  0.00  0.00    +0.000 C 
ATOM      3  C   UNL     1       1.700   0.096  -1.075  0.00  0.00    +0.000 C 
ATOM      4  C   UNL     1       2.277   0.099   0.370  0.00  0.00    +0.000 C 
ATOM      5  C   UNL     1      -1.962   0.808  -0.418  0.00  0.00    +0.000 C 
ATOM      6  C   UNL     1       0.030   1.063   1.228  0.00  0.00    +0.000 C 
ATOM      7  C   UNL     1       3.854   0.220   0.364  0.00  0.00    +0.000 C 
ATOM      8  C   UNL     1      -0.615  -0.004  -2.323  0.00  0.00    +0.000 C 
ATOM      9  C   UNL     1       1.566   1.120   1.300  0.00  0.00    +0.000 C 
ATOM     10  C   UNL     1      -2.043   0.395  -1.907  0.00  0.00    +0.000 C 
ATOM     11  C   UNL     1       2.277  -1.083  -1.873  0.00  0.00    +0.000 C 
ATOM     12  C   UNL     1      -0.154   2.576  -0.784  0.00  0.00    +0.000 C 
ATOM     13  C   UNL     1       4.469  -0.705  -0.695  0.00  0.00    +0.000 C 
ATOM     14  C   UNL     1       4.381  -0.194   1.770  0.00  0.00    +0.000 C 
ATOM     15  C   UNL     1       3.745  -1.283  -1.670  0.00  0.00    +0.000 C 
ATOM     16  C   UNL     1       4.306   1.668   0.053  0.00  0.00    +0.000 C 
ATOM     17  C   UNL     1       5.955  -0.965  -0.606  0.00  0.00    +0.000 C 
ATOM     18  C   UNL     1       5.895  -0.389   1.843  0.00  0.00    +0.000 C 
ATOM     19  C   UNL     1       6.374  -1.390   0.798  0.00  0.00    +0.000 C 
ENDROOT
BRANCH  19  20
ATOM     20  O   UNL     1       7.794  -1.470   0.869  0.00  0.00    +0.000 OA
ATOM     21  H   UNL     1       8.085  -2.114   0.201  0.00  0.00    +0.000 HD
ENDBRANCH  19  20
BRANCH   5  22
ATOM     22  C   UNL     1      -2.977   1.879  -0.045  0.00  0.00    +0.000 C 
ATOM     23  C   UNL     1      -2.800   2.310   1.413  0.00  0.00    +0.000 C 
BRANCH  22  24
ATOM     24  C   UNL     1      -4.431   1.456  -0.342  0.00  0.00    +0.000 C 
BRANCH  24  25
ATOM     25  C   UNL     1      -4.892   0.167   0.350  0.00  0.00    +0.000 C 
BRANCH  25  26
ATOM     26  C   UNL     1      -6.328  -0.185  -0.053  0.00  0.00    +0.000 C 
BRANCH  26  27
ATOM     27  C   UNL     1      -6.877  -1.504   0.528  0.00  0.00    +0.000 C 
ATOM     28  C   UNL     1      -6.965  -1.480   2.055  0.00  0.00    +0.000 C 
ATOM     29  C   UNL     1      -6.075  -2.720   0.063  0.00  0.00    +0.000 C 
BRANCH  27  30
ATOM     30  O   UNL     1      -8.207  -1.674   0.019  0.00  0.00    +0.000 OA
ATOM     31  H   UNL     1      -8.157  -1.713  -0.951  0.00  0.00    +0.000 HD
ENDBRANCH  27  30
ENDBRANCH  26  27
ENDBRANCH  25  26
ENDBRANCH  24  25
ENDBRANCH  22  24
ENDBRANCH   5  22
TORSDOF 7
