REMARK  Name = 16757521
REMARK  15 active torsions:
REMARK  status: ('A' for Active; 'I' for Inactive)
REMARK    1  A    between atoms: O_4  and  C_13
REMARK    2  A    between atoms: O_6  and  C_28
REMARK    3  A    between atoms: C_10  and  C_16
REMARK    4  A    between atoms: C_13  and  C_17
REMARK    5  A    between atoms: C_16  and  C_18
REMARK    6  A    between atoms: C_17  and  C_19
REMARK    7  A    between atoms: C_18  and  C_20
REMARK    8  A    between atoms: C_19  and  C_21
REMARK    9  A    between atoms: C_20  and  C_22
REMARK   10  A    between atoms: C_21  and  C_23
REMARK   11  A    between atoms: C_21  and  C_24
REMARK   12  A    between atoms: C_22  and  C_25
REMARK   13  A    between atoms: C_23  and  C_26
REMARK   14  A    between atoms: C_25  and  C_27
REMARK   15  A    between atoms: C_27  and  C_28
REMARK                            x       y       z     vdW  Elec       q    Type
REMARK                         _______ _______ _______ _____ _____    ______ ____
ROOT
ATOM      1  O   UNL     1       2.594   1.408   0.252  0.00  0.00    +0.000 OA
ATOM      2  O   UNL     1      -1.845   3.106   0.334  0.00  0.00    +0.000 OA
ATOM      3  C   UNL     1       0.406   0.439  -0.032  0.00  0.00    +0.000 C 
ATOM      4  C   UNL     1       1.303   1.647  -0.287  0.00  0.00    +0.000 C 
ATOM      5  C   UNL     1      -0.983   0.951  -0.408  0.00  0.00    +0.000 C 
ATOM      6  C   UNL     1       0.955  -0.754  -0.796  0.00  0.00    +0.000 C 
ATOM      7  C   UNL     1       0.552   2.783   0.395  0.00  0.00    +0.000 C 
ATOM      8  C   UNL     1       3.255   0.307  -0.403  0.00  0.00    +0.000 C 
ATOM      9  C   UNL     1       2.404  -0.982  -0.342  0.00  0.00    +0.000 C 
ATOM     10  C   UNL     1      -0.884   2.373   0.133  0.00  0.00    +0.000 C 
ENDROOT
BRANCH   8  13
ATOM     11  F   UNL     1       4.325  -0.190   1.613  0.00  0.00    +0.000 F 
ATOM     12  F   UNL     1       5.271   1.252   0.278  0.00  0.00    +0.000 F 
ATOM     13  C   UNL     1       4.586   0.087   0.315  0.00  0.00    +0.000 C 
BRANCH  13  14
ATOM     14  C   UNL     1       5.396  -1.039  -0.312  0.00  0.00    +0.000 C 
BRANCH  14  15
ATOM     15  C   UNL     1       6.893  -1.040   0.076  0.00  0.00    +0.000 C 
ATOM     16  C   UNL     1       7.106  -1.116   1.591  0.00  0.00    +0.000 C 
BRANCH  15  17
ATOM     17  C   UNL     1       7.646  -2.212  -0.592  0.00  0.00    +0.000 C 
ATOM     18  C   UNL     1       9.148  -2.206  -0.340  0.00  0.00    +0.000 C 
ENDBRANCH  15  17
ENDBRANCH  14  15
ENDBRANCH  13  14
ENDBRANCH   8  13
BRANCH   8  19
ATOM     19  O   UNL     1       3.524   0.596  -1.778  0.00  0.00    +0.000 OA
ATOM     20  H   UNL     1       2.779   0.299  -2.325  0.00  0.00    +0.000 HD
ENDBRANCH   8  19
BRANCH   5  21
ATOM     21  C   UNL     1      -2.108   0.157   0.225  0.00  0.00    +0.000 C 
BRANCH  21  22
ATOM     22  C   UNL     1      -3.457   0.471  -0.428  0.00  0.00    +0.000 C 
BRANCH  22  23
ATOM     23  C   UNL     1      -4.594  -0.305   0.240  0.00  0.00    +0.000 C 
BRANCH  23  24
ATOM     24  C   UNL     1      -5.967  -0.032  -0.382  0.00  0.00    +0.000 C 
BRANCH  24  25
ATOM     25  C   UNL     1      -7.142  -0.798   0.233  0.00  0.00    +0.000 C 
BRANCH  25  26
ATOM     26  C   UNL     1      -8.475  -0.529  -0.463  0.00  0.00    +0.000 C 
BRANCH  26  28
ATOM     27  O   UNL     1      -9.506  -2.053   1.132  0.00  0.00    +0.000 OA
ATOM     28  C   UNL     1      -9.610  -1.293   0.180  0.00  0.00    +0.000 C 
BRANCH  28  29
ATOM     29  O   UNL     1     -10.795  -1.029  -0.432  0.00  0.00    +0.000 OA
ATOM     30  H   UNL     1     -11.537  -1.519  -0.018  0.00  0.00    +0.000 HD
ENDBRANCH  28  29
ENDBRANCH  26  28
ENDBRANCH  25  26
ENDBRANCH  24  25
ENDBRANCH  23  24
ENDBRANCH  22  23
ENDBRANCH  21  22
ENDBRANCH   5  21
TORSDOF 13
