REMARK  Name = 3339
REMARK  11 active torsions:
REMARK  status: ('A' for Active; 'I' for Inactive)
REMARK    1  A    between atoms: O_2  and  C_6
REMARK    2  A    between atoms: O_2  and  C_11
REMARK    3  A    between atoms: O_3  and  C_9
REMARK    4  A    between atoms: O_3  and  C_10
REMARK    5  A    between atoms: C_6  and  C_7
REMARK    6  A    between atoms: C_6  and  C_8
REMARK    7  A    between atoms: C_6  and  C_9
REMARK    8  A    between atoms: C_10  and  C_15
REMARK    9  A    between atoms: C_10  and  C_16
REMARK   10  A    between atoms: C_14  and  C_19
REMARK   11  A    between atoms: C_19  and  C_20
REMARK                            x       y       z     vdW  Elec       q    Type
REMARK                         _______ _______ _______ _____ _____    ______ ____
ROOT
ATOM      1  C   UNL     1       0.991   0.856  -0.614  0.00  0.00    +0.000 A 
ATOM      2  C   UNL     1       0.071  -0.195  -0.747  0.00  0.00    +0.000 A 
ATOM      3  C   UNL     1       0.533   2.104  -0.165  0.00  0.00    +0.000 A 
ATOM      4  C   UNL     1      -1.717   1.243   0.009  0.00  0.00    +0.000 A 
ATOM      5  C   UNL     1      -1.275  -0.003  -0.437  0.00  0.00    +0.000 A 
ATOM      6  C   UNL     1      -0.813   2.296   0.145  0.00  0.00    +0.000 A 
ENDROOT
BRANCH   4   8
ATOM      7  O   UNL     1      -3.520   2.547   0.728  0.00  0.00    +0.000 OA
ATOM      8  C   UNL     1      -3.121   1.442   0.331  0.00  0.00    +0.000 C 
BRANCH   8  10
ATOM      9 CL   UNL     1      -7.168  -2.910  -0.178  0.00  0.00    +0.000 Cl
ATOM     10  C   UNL     1      -4.135   0.352   0.204  0.00  0.00    +0.000 A 
ATOM     11  C   UNL     1      -4.367  -0.460   1.289  0.00  0.00    +0.000 A 
ATOM     12  C   UNL     1      -4.795   0.205  -0.994  0.00  0.00    +0.000 A 
ATOM     13  C   UNL     1      -5.313  -1.478   1.170  0.00  0.00    +0.000 A 
ATOM     14  C   UNL     1      -5.741  -0.813  -1.113  0.00  0.00    +0.000 A 
ATOM     15  C   UNL     1      -6.000  -1.655  -0.031  0.00  0.00    +0.000 A 
ENDBRANCH   8  10
ENDBRANCH   4   8
BRANCH   1  16
ATOM     16  O   UNL     1       2.289   0.671  -0.915  0.00  0.00    +0.000 OA
BRANCH  16  17
ATOM     17  C   UNL     1       3.169   0.234   0.112  0.00  0.00    +0.000 C 
ATOM     18  C   UNL     1       3.132   1.261   1.242  0.00  0.00    +0.000 C 
ATOM     19  C   UNL     1       2.686  -1.129   0.599  0.00  0.00    +0.000 C 
BRANCH  17  21
ATOM     20  O   UNL     1       4.890   0.315  -1.606  0.00  0.00    +0.000 OA
ATOM     21  C   UNL     1       4.584   0.090  -0.441  0.00  0.00    +0.000 C 
BRANCH  21  22
ATOM     22  O   UNL     1       5.450  -0.283   0.547  0.00  0.00    +0.000 OA
BRANCH  22  23
ATOM     23  C   UNL     1       6.588  -1.038   0.119  0.00  0.00    +0.000 C 
ATOM     24  C   UNL     1       7.466  -1.346   1.323  0.00  0.00    +0.000 C 
ATOM     25  C   UNL     1       6.116  -2.305  -0.578  0.00  0.00    +0.000 C 
ENDBRANCH  22  23
ENDBRANCH  21  22
ENDBRANCH  17  21
ENDBRANCH  16  17
ENDBRANCH   1  16
TORSDOF 7
