REMARK  Name = 46937124
REMARK  11 active torsions:
REMARK  status: ('A' for Active; 'I' for Inactive)
REMARK    1  A    between atoms: O_1  and  C_10
REMARK    2  A    between atoms: O_1  and  C_18
REMARK    3  A    between atoms: O_2  and  C_17
REMARK    4  A    between atoms: C_7  and  C_13
REMARK    5  A    between atoms: C_13  and  C_15
REMARK    6  A    between atoms: C_13  and  C_16
REMARK    7  A    between atoms: CA_14  and  C_17
REMARK    8  A    between atoms: C_15  and  C_19
REMARK    9  A    between atoms: C_18  and  C_20
REMARK   10  A    between atoms: C_20  and  C_21
REMARK   11  A    between atoms: C_21  and  C_22
REMARK                            x       y       z     vdW  Elec       q    Type
REMARK                         _______ _______ _______ _____ _____    ______ ____
ROOT
ATOM      1  N   UNL     1       1.271  -1.328  -0.513  0.00  0.00    +0.000 N 
ATOM      2  C   UNL     1       0.712   0.906  -0.018  0.00  0.00    +0.000 C 
ATOM      3  C   UNL     1       1.740   0.020  -0.795  0.00  0.00    +0.000 C 
ATOM      4  C   UNL     1      -0.239  -0.108   0.601  0.00  0.00    +0.000 C 
ATOM      5  C   UNL     1       1.259   1.825   1.078  0.00  0.00    +0.000 C 
ATOM      6  C   UNL     1      -1.340   0.382   1.483  0.00  0.00    +0.000 C 
ATOM      7  C   UNL     1       0.119   2.453   1.889  0.00  0.00    +0.000 C 
ATOM      8  C   UNL     1      -0.796   1.385   2.510  0.00  0.00    +0.000 C 
ATOM      9  CA  UNL     1       0.155  -1.345   0.276  0.00  0.00    +0.000 C 
ATOM     10  H   UNL     1       1.610  -2.165  -0.968  0.00  0.00    +0.000 HD
ENDROOT
BRANCH   9  12
ATOM     11  OXT UNL     1      -1.454  -2.684   1.402  0.00  0.00    +0.000 OA
ATOM     12  C   UNL     1      -0.465  -2.594   0.686  0.00  0.00    +0.000 C 
BRANCH  12  13
ATOM     13  O   UNL     1       0.211  -3.642   0.161  0.00  0.00    +0.000 OA
ATOM     14  H   UNL     1      -0.183  -4.502   0.421  0.00  0.00    +0.000 HD
ENDBRANCH  12  13
ENDBRANCH   9  12
BRANCH   6  15
ATOM     15  O   UNL     1      -2.307   1.030   0.659  0.00  0.00    +0.000 OA
BRANCH  15  16
ATOM     16  C   UNL     1      -3.156   0.088   0.021  0.00  0.00    +0.000 C 
BRANCH  16  17
ATOM     17  C   UNL     1      -4.149   0.837  -0.856  0.00  0.00    +0.000 C 
BRANCH  17  18
ATOM     18  C   UNL     1      -5.108  -0.117  -1.563  0.00  0.00    +0.000 C 
ATOM     19  C   UNL     1      -6.125   0.637  -2.404  0.00  0.00    +0.000 C 
ENDBRANCH  17  18
ENDBRANCH  16  17
ENDBRANCH  15  16
ENDBRANCH   6  15
BRANCH   3  20
ATOM     20  C   UNL     1       3.201   0.157  -0.399  0.00  0.00    +0.000 C 
BRANCH  20  22
ATOM     21  O   UNL     1       3.230   2.246  -1.663  0.00  0.00    +0.000 OA
ATOM     22  C   UNL     1       3.646   1.574  -0.725  0.00  0.00    +0.000 C 
ENDBRANCH  20  22
BRANCH  20  23
ATOM     23  C   UNL     1       4.060  -0.911  -1.095  0.00  0.00    +0.000 C 
ATOM     24  C   UNL     1       5.537  -0.811  -0.735  0.00  0.00    +0.000 C 
ENDBRANCH  20  23
ENDBRANCH   3  20
TORSDOF 9
