REMARK  Name = 4680
REMARK  10 active torsions:
REMARK  status: ('A' for Active; 'I' for Inactive)
REMARK    1  A    between atoms: O_1  and  C_13
REMARK    2  A    between atoms: O_1  and  C_22
REMARK    3  A    between atoms: O_2  and  C_15
REMARK    4  A    between atoms: O_2  and  C_23
REMARK    5  A    between atoms: O_3  and  C_19
REMARK    6  A    between atoms: O_3  and  C_24
REMARK    7  A    between atoms: O_4  and  C_20
REMARK    8  A    between atoms: O_4  and  C_25
REMARK    9  A    between atoms: C_7  and  C_8
REMARK   10  A    between atoms: C_7  and  C_10
REMARK                            x       y       z     vdW  Elec       q    Type
REMARK                         _______ _______ _______ _____ _____    ______ ____
ROOT
ATOM      1  N   UNL     1       0.437  -1.359   0.375  0.00  0.00    +0.000 NA
ATOM      2  C   UNL     1      -1.701  -0.224   0.145  0.00  0.00    +0.000 A 
ATOM      3  C   UNL     1      -0.308  -0.239   0.238  0.00  0.00    +0.000 A 
ATOM      4  C   UNL     1      -2.371  -1.464   0.199  0.00  0.00    +0.000 A 
ATOM      5  C   UNL     1      -2.439   0.963   0.003  0.00  0.00    +0.000 A 
ATOM      6  C   UNL     1      -3.772  -1.488   0.109  0.00  0.00    +0.000 A 
ATOM      7  C   UNL     1      -3.830   0.921  -0.085  0.00  0.00    +0.000 A 
ATOM      8  C   UNL     1      -1.617  -2.635   0.340  0.00  0.00    +0.000 A 
ATOM      9  C   UNL     1      -4.495  -0.302  -0.032  0.00  0.00    +0.000 A 
ATOM     10  C   UNL     1      -0.238  -2.528   0.422  0.00  0.00    +0.000 A 
ENDROOT
BRANCH   7  11
ATOM     11  O   UNL     1      -4.528   2.083  -0.222  0.00  0.00    +0.000 OA
ATOM     12  C   UNL     1      -4.942   2.735   0.977  0.00  0.00    +0.000 C 
ENDBRANCH   7  11
BRANCH   9  13
ATOM     13  O   UNL     1      -5.854  -0.355  -0.117  0.00  0.00    +0.000 OA
ATOM     14  C   UNL     1      -6.418  -0.479  -1.421  0.00  0.00    +0.000 C 
ENDBRANCH   9  13
BRANCH   3  15
ATOM     15  C   UNL     1       0.487   1.027   0.190  0.00  0.00    +0.000 C 
BRANCH  15  16
ATOM     16  C   UNL     1       1.981   0.814   0.305  0.00  0.00    +0.000 A 
ATOM     17  C   UNL     1       2.726   0.624  -0.846  0.00  0.00    +0.000 A 
ATOM     18  C   UNL     1       2.569   0.814   1.558  0.00  0.00    +0.000 A 
ATOM     19  C   UNL     1       4.103   0.427  -0.740  0.00  0.00    +0.000 A 
ATOM     20  C   UNL     1       4.713   0.424   0.515  0.00  0.00    +0.000 A 
ATOM     21  C   UNL     1       3.946   0.617   1.664  0.00  0.00    +0.000 A 
BRANCH  19  22
ATOM     22  O   UNL     1       4.842   0.241  -1.869  0.00  0.00    +0.000 OA
ATOM     23  C   UNL     1       4.142   0.258  -3.112  0.00  0.00    +0.000 C 
ENDBRANCH  19  22
BRANCH  20  24
ATOM     24  O   UNL     1       6.057   0.234   0.630  0.00  0.00    +0.000 OA
ATOM     25  C   UNL     1       6.512  -1.110   0.772  0.00  0.00    +0.000 C 
ENDBRANCH  20  24
ENDBRANCH  15  16
ENDBRANCH   3  15
TORSDOF 6
