REMARK  Name = 369976
REMARK  11 active torsions:
REMARK  status: ('A' for Active; 'I' for Inactive)
REMARK    1  A    between atoms: O_4  and  C_13
REMARK    2  A    between atoms: O_4  and  C_21
REMARK    3  A    between atoms: O_5  and  C_16
REMARK    4  A    between atoms: O_5  and  C_22
REMARK    5  A    between atoms: C_9  and  C_11
REMARK    6  A    between atoms: C_11  and  C_18
REMARK    7  A    between atoms: C_12  and  C_19
REMARK    8  A    between atoms: C_19  and  C_20
REMARK    9  A    between atoms: C_23  and  C_24
REMARK   10  A    between atoms: C_23  and  C_25
REMARK   11  A    between atoms: C_26  and  C_27
REMARK                            x       y       z     vdW  Elec       q    Type
REMARK                         _______ _______ _______ _____ _____    ______ ____
ROOT
ATOM      1  O   UNL     1       4.690   1.067   0.540  0.00  0.00    +0.000 OA
ATOM      2  C   UNL     1       2.542   0.497  -0.569  0.00  0.00    +0.000 C 
ATOM      3  C   UNL     1       3.290   1.365   0.426  0.00  0.00    +0.000 C 
ATOM      4  C   UNL     1       1.107   1.039  -0.751  0.00  0.00    +0.000 C 
ATOM      5  C   UNL     1       4.355   2.318  -0.074  0.00  0.00    +0.000 C 
ATOM      6  C   UNL     1       2.614   1.645   1.738  0.00  0.00    +0.000 C 
ATOM      7  C   UNL     1       0.401   1.297   0.589  0.00  0.00    +0.000 C 
ATOM      8  C   UNL     1       1.218   2.214   1.501  0.00  0.00    +0.000 C 
ENDROOT
BRANCH   2  10
ATOM      9  O   UNL     1       2.060  -1.218   1.146  0.00  0.00    +0.000 OA
ATOM     10  C   UNL     1       2.539  -0.961  -0.180  0.00  0.00    +0.000 C 
ATOM     11  C   UNL     1       1.262  -1.712   0.062  0.00  0.00    +0.000 C 
ATOM     12  C   UNL     1       3.780  -1.695  -0.526  0.00  0.00    +0.000 C 
BRANCH  11  13
ATOM     13  C   UNL     1       1.211  -3.191  -0.015  0.00  0.00    +0.000 C 
BRANCH  13  14
ATOM     14  C   UNL     1      -0.026  -3.818   0.584  0.00  0.00    +0.000 C 
ATOM     15  C   UNL     1      -1.157  -4.179  -0.051  0.00  0.00    +0.000 C 
ATOM     16  C   UNL     1      -1.293  -3.986  -1.537  0.00  0.00    +0.000 C 
ATOM     17  C   UNL     1      -2.355  -4.800   0.610  0.00  0.00    +0.000 C 
ENDBRANCH  13  14
ENDBRANCH  11  13
ENDBRANCH   2  10
BRANCH   4  18
ATOM     18  O   UNL     1       1.171   2.266  -1.484  0.00  0.00    +0.000 OA
ATOM     19  C   UNL     1       1.315   2.026  -2.874  0.00  0.00    +0.000 C 
ENDBRANCH   4  18
BRANCH   7  20
ATOM     20  O   UNL     1      -0.873   1.894   0.365  0.00  0.00    +0.000 OA
BRANCH  20  24
ATOM     21  O   UNL     1      -1.825  -0.192   0.237  0.00  0.00    +0.000 OA
ATOM     22  O   UNL     1      -4.596  -0.023  -0.233  0.00  0.00    +0.000 OA
ATOM     23  N   UNL     1      -3.094   1.746  -0.007  0.00  0.00    +0.000 N 
ATOM     24  C   UNL     1      -1.923   1.030   0.201  0.00  0.00    +0.000 C 
ATOM     25  C   UNL     1      -4.351   1.181  -0.211  0.00  0.00    +0.000 C 
ATOM     26  H   UNL     1      -3.008   2.758  -0.008  0.00  0.00    +0.000 HD
BRANCH  25  28
ATOM     27 CL   UNL     1      -6.628   1.976   0.900  0.00  0.00    +0.000 Cl
ATOM     28  C   UNL     1      -5.434   2.216  -0.386  0.00  0.00    +0.000 C 
ENDBRANCH  25  28
ENDBRANCH  20  24
ENDBRANCH   7  20
TORSDOF 7
