REMARK  Name = 9677
REMARK  12 active torsions:
REMARK  status: ('A' for Active; 'I' for Inactive)
REMARK    1  A    between atoms: O_1  and  C_9
REMARK    2  A    between atoms: O_1  and  C_22
REMARK    3  A    between atoms: C_5  and  C_15
REMARK    4  A    between atoms: C_22  and  C_23
REMARK    5  A    between atoms: C_23  and  C_24
REMARK    6  A    between atoms: C_24  and  C_25
REMARK    7  A    between atoms: C_25  and  C_26
REMARK    8  A    between atoms: C_26  and  C_27
REMARK    9  A    between atoms: C_27  and  C_28
REMARK   10  A    between atoms: C_28  and  C_29
REMARK   11  A    between atoms: C_29  and  C_30
REMARK   12  A    between atoms: C_30  and  C_31
REMARK                            x       y       z     vdW  Elec       q    Type
REMARK                         _______ _______ _______ _____ _____    ______ ____
ROOT
ATOM      1  O   UNL     1      -6.699  -3.063   1.188  0.00  0.00    +0.000 OA
ATOM      2  C   UNL     1      -1.481   2.291  -0.501  0.00  0.00    +0.000 C 
ATOM      3  C   UNL     1      -0.018   1.907  -0.206  0.00  0.00    +0.000 C 
ATOM      4  C   UNL     1      -2.338   1.082  -0.879  0.00  0.00    +0.000 C 
ATOM      5  C   UNL     1      -2.334   0.075   0.309  0.00  0.00    +0.000 C 
ATOM      6  C   UNL     1      -0.007   0.966   1.004  0.00  0.00    +0.000 C 
ATOM      7  C   UNL     1       0.559   3.311   0.062  0.00  0.00    +0.000 C 
ATOM      8  C   UNL     1      -1.354   3.451  -1.485  0.00  0.00    +0.000 C 
ATOM      9  C   UNL     1      -0.894  -0.270   0.771  0.00  0.00    +0.000 C 
ATOM     10  C   UNL     1      -3.173  -1.196  -0.029  0.00  0.00    +0.000 C 
ATOM     11  C   UNL     1      -0.086   4.194  -1.024  0.00  0.00    +0.000 C 
ATOM     12  C   UNL     1      -3.779   1.483  -1.218  0.00  0.00    +0.000 C 
ATOM     13  C   UNL     1       0.727   1.235  -1.388  0.00  0.00    +0.000 C 
ATOM     14  C   UNL     1      -4.602   0.258  -1.603  0.00  0.00    +0.000 C 
ATOM     15  C   UNL     1      -4.555  -0.819  -0.548  0.00  0.00    +0.000 C 
ATOM     16  C   UNL     1      -3.256  -2.129   1.196  0.00  0.00    +0.000 C 
ATOM     17  C   UNL     1      -4.311  -3.209   1.038  0.00  0.00    +0.000 C 
ATOM     18  C   UNL     1      -5.691  -1.414  -0.151  0.00  0.00    +0.000 C 
ATOM     19  C   UNL     1      -5.653  -2.584   0.756  0.00  0.00    +0.000 C 
ENDROOT
BRANCH   7  20
ATOM     20  O   UNL     1       1.972   3.350  -0.002  0.00  0.00    +0.000 OA
BRANCH  20  22
ATOM     21  O   UNL     1       2.109   2.977   2.274  0.00  0.00    +0.000 OA
ATOM     22  C   UNL     1       2.635   3.167   1.185  0.00  0.00    +0.000 C 
BRANCH  22  23
ATOM     23  C   UNL     1       4.125   3.255   0.977  0.00  0.00    +0.000 C 
BRANCH  23  24
ATOM     24  C   UNL     1       4.605   2.150   0.045  0.00  0.00    +0.000 C 
BRANCH  24  25
ATOM     25  C   UNL     1       4.328   0.766   0.633  0.00  0.00    +0.000 C 
BRANCH  25  26
ATOM     26  C   UNL     1       4.840  -0.343  -0.288  0.00  0.00    +0.000 C 
BRANCH  26  27
ATOM     27  C   UNL     1       4.533  -1.728   0.285  0.00  0.00    +0.000 C 
BRANCH  27  28
ATOM     28  C   UNL     1       5.017  -2.835  -0.654  0.00  0.00    +0.000 C 
BRANCH  28  29
ATOM     29  C   UNL     1       4.707  -4.246  -0.144  0.00  0.00    +0.000 C 
BRANCH  29  30
ATOM     30  C   UNL     1       5.169  -5.351  -1.094  0.00  0.00    +0.000 C 
ATOM     31  C   UNL     1       4.904  -6.730  -0.509  0.00  0.00    +0.000 C 
ENDBRANCH  29  30
ENDBRANCH  28  29
ENDBRANCH  27  28
ENDBRANCH  26  27
ENDBRANCH  25  26
ENDBRANCH  24  25
ENDBRANCH  23  24
ENDBRANCH  22  23
ENDBRANCH  20  22
ENDBRANCH   7  20
TORSDOF 10
