REMARK  Name = 
REMARK  18 active torsions:
REMARK  status: ('A' for Active; 'I' for Inactive)
REMARK    1  A    between atoms: C_1  and  O_2
REMARK    2  A    between atoms: O_2  and  C_3
REMARK    3  A    between atoms: C_5  and  O_6
REMARK    4  A    between atoms: O_6  and  C_7
REMARK    5  A    between atoms: C_8  and  C_9
REMARK    6  A    between atoms: C_19  and  C_20
REMARK    7  A    between atoms: C_21  and  C_22
REMARK    8  A    between atoms: C_35  and  C_36
REMARK    9  A    between atoms: C_37  and  O_38
REMARK   10  A    between atoms: C_46  and  C_47
REMARK   11  A    between atoms: C_48  and  O_49
REMARK   12  A    between atoms: C_51  and  C_52
REMARK   13  A    between atoms: C_53  and  O_54
REMARK   14  A    between atoms: O_54  and  C_55
REMARK   15  A    between atoms: C_57  and  O_58
REMARK   16  A    between atoms: O_58  and  C_59
REMARK   17  A    between atoms: C_60  and  O_61
REMARK   18  A    between atoms: C_62  and  C_63
REMARK                            x       y       z     vdW  Elec       q    Type
REMARK                         _______ _______ _______ _____ _____    ______ ____
ROOT
ATOM      1  C   UNL     1       1.869  -0.384  -0.718  0.00  0.00    +0.000 C 
ATOM      2  C   UNL     1       0.305  -0.026  -0.762  0.00  0.00    +0.000 C 
ATOM      3  C   UNL     1       0.032  -0.397  -2.213  0.00  0.00    +0.000 C 
ATOM      4  C   UNL     1      -0.130   1.149  -0.509  0.00  0.00    +0.000 C 
ATOM      5  C   UNL     1      -0.772   1.903   0.449  0.00  0.00    +0.000 C 
ATOM      6  C   UNL     1      -2.161   1.249   1.030  0.00  0.00    +0.000 C 
ATOM      7  C   UNL     1      -2.481   0.180  -0.198  0.00  0.00    +0.000 C 
ATOM      8  C   UNL     1      -3.413  -0.797   0.751  0.00  0.00    +0.000 C 
ATOM      9  C   UNL     1      -4.273   0.471   1.358  0.00  0.00    +0.000 C 
ATOM     10  C   UNL     1      -4.232   1.603   0.437  0.00  0.00    +0.000 C 
ATOM     11  C   UNL     1      -4.779   1.412  -0.921  0.00  0.00    +0.000 C 
ATOM     12  C   UNL     1      -5.925   1.935  -1.263  0.00  0.00    +0.000 C 
ATOM     13  C   UNL     1      -6.329   3.397  -0.794  0.00  0.00    +0.000 C 
ATOM     14  C   UNL     1      -5.752   4.072  -2.153  0.00  0.00    +0.000 C 
ATOM     15  C   UNL     1      -4.856   3.688   0.017  0.00  0.00    +0.000 C 
ATOM     16  O   UNL     1      -5.105   2.559   0.990  0.00  0.00    +0.000 OA
ATOM     17  O   UNL     1      -3.018   2.289   0.332  0.00  0.00    +0.000 OA
ATOM     18  O   UNL     1      -4.491  -1.110  -0.287  0.00  0.00    +0.000 OA
ATOM     19  C   UNL     1      -4.903  -2.364   0.261  0.00  0.00    +0.000 C 
ATOM     20  O   UNL     1      -6.189  -2.326   0.212  0.00  0.00    +0.000 OA
ATOM     21  C   UNL     1      -4.227  -3.325  -0.847  0.00  0.00    +0.000 C 
ATOM     22  C   UNL     1      -5.354  -4.463  -0.577  0.00  0.00    +0.000 C 
ATOM     23  C   UNL     1      -5.369  -5.528  -1.251  0.00  0.00    +0.000 C 
ATOM     24  C   UNL     1      -6.111  -6.616  -0.529  0.00  0.00    +0.000 C 
ATOM     25  C   UNL     1      -3.856  -5.969  -1.607  0.00  0.00    +0.000 C 
ATOM     26  C   UNL     1      -3.449  -5.659   0.042  0.00  0.00    +0.000 C 
ATOM     27  O   UNL     1      -2.062  -6.206  -0.195  0.00  0.00    +0.000 OA
ATOM     28  C   UNL     1      -1.619  -5.452  -1.253  0.00  0.00    +0.000 C 
ATOM     29  C   UNL     1      -1.752  -4.047  -0.650  0.00  0.00    +0.000 C 
ATOM     30  C   UNL     1      -0.951  -3.559   0.239  0.00  0.00    +0.000 C 
ATOM     31  C   UNL     1       0.420  -3.401   0.469  0.00  0.00    +0.000 C 
ATOM     32  C   UNL     1       0.728  -2.484  -0.469  0.00  0.00    +0.000 C 
ATOM     33  C   UNL     1       1.765  -1.670   0.416  0.00  0.00    +0.000 C 
ATOM     34  C   UNL     1       0.665  -1.014   1.421  0.00  0.00    +0.000 C 
ATOM     35  C   UNL     1      -3.077  -4.088  -0.009  0.00  0.00    +0.000 C 
ENDROOT
BRANCH  15  36
ATOM     36  C   UNL     1      -5.502   4.793   1.035  0.00  0.00    +0.000 C 
ATOM     37  C   UNL     1      -6.671   5.454   0.414  0.00  0.00    +0.000 C 
ATOM     38  C   UNL     1      -6.666   6.951   0.524  0.00  0.00    +0.000 C 
ATOM     39  C   UNL     1      -5.583   7.486  -0.403  0.00  0.00    +0.000 C 
ATOM     40  C   UNL     1      -4.342   6.643  -0.232  0.00  0.00    +0.000 C 
ATOM     41  C   UNL     1      -4.392   5.841   1.050  0.00  0.00    +0.000 C 
ENDBRANCH  15  36
BRANCH  25  42
ATOM     42  O   UNL     1      -3.579  -4.632  -2.235  0.00  0.00    +0.000 OA
ATOM     43  H   UNL     1      -3.943  -3.929  -1.674  0.00  0.00    +0.000 HD
ENDBRANCH  25  42
BRANCH  35  44
ATOM     44  O   UNL     1      -3.173  -3.777   1.285  0.00  0.00    +0.000 OA
ATOM     45  H   UNL     1      -2.970  -2.836   1.407  0.00  0.00    +0.000 HD
ENDBRANCH  35  44
BRANCH   1  46
ATOM     46  O   UNL     1       2.233   0.538   0.417  0.00  0.00    +0.000 OA
BRANCH  46  49
ATOM     47  C   UNL     1       5.463  -1.013   1.622  0.00  0.00    +0.000 C 
ATOM     48  C   UNL     1       3.864  -0.762   1.441  0.00  0.00    +0.000 C 
ATOM     49  C   UNL     1       3.763   0.490   0.354  0.00  0.00    +0.000 C 
ATOM     50  O   UNL     1       3.845  -0.388  -0.905  0.00  0.00    +0.000 OA
ATOM     51  C   UNL     1       4.939  -1.354  -0.576  0.00  0.00    +0.000 C 
ATOM     52  C   UNL     1       5.671  -1.172  -2.030  0.00  0.00    +0.000 C 
ATOM     53  C   UNL     1       5.750  -0.073   0.226  0.00  0.00    +0.000 C 
BRANCH  47  55
ATOM     54  C   UNL     1       5.627  -0.404   3.582  0.00  0.00    +0.000 C 
ATOM     55  O   UNL     1       5.618   0.167   2.545  0.00  0.00    +0.000 OA
ENDBRANCH  47  55
BRANCH  53  56
ATOM     56  O   UNL     1       7.153  -0.512  -0.026  0.00  0.00    +0.000 OA
BRANCH  56  57
ATOM     57  C   UNL     1       7.360   0.997  -0.308  0.00  0.00    +0.000 C 
ATOM     58  C   UNL     1       8.790   1.008   0.532  0.00  0.00    +0.000 C 
ATOM     59  C   UNL     1       9.793   1.608  -0.611  0.00  0.00    +0.000 C 
ATOM     60  C   UNL     1       8.697   2.853  -1.030  0.00  0.00    +0.000 C 
ATOM     61  C   UNL     1       7.996   2.007  -2.339  0.00  0.00    +0.000 C 
ATOM     62  C   UNL     1       6.495   2.461  -1.853  0.00  0.00    +0.000 C 
ATOM     63  O   UNL     1       7.987   0.667  -1.655  0.00  0.00    +0.000 OA
BRANCH  59  64
ATOM     64  O   UNL     1      10.482   2.522   0.367  0.00  0.00    +0.000 OA
ATOM     65  C   UNL     1       9.504   3.143   1.117  0.00  0.00    +0.000 C 
ENDBRANCH  59  64
BRANCH  60  66
ATOM     66  O   UNL     1       9.731   3.439  -1.938  0.00  0.00    +0.000 OA
ATOM     67  H   UNL     1      10.113   2.738  -2.489  0.00  0.00    +0.000 HD
ENDBRANCH  60  66
ENDBRANCH  56  57
ENDBRANCH  53  56
ENDBRANCH  46  49
ENDBRANCH   1  46
TORSDOF 10
