REMARK  Name = 
REMARK  21 active torsions:
REMARK  status: ('A' for Active; 'I' for Inactive)
REMARK    1  A    between atoms: C_1  and  O_2
REMARK    2  A    between atoms: O_2  and  C_3
REMARK    3  A    between atoms: C_5  and  O_6
REMARK    4  A    between atoms: O_6  and  C_7
REMARK    5  A    between atoms: C_8  and  C_9
REMARK    6  A    between atoms: C_11  and  O_12
REMARK    7  A    between atoms: O_12  and  C_13
REMARK    8  A    between atoms: C_14  and  C_15
REMARK    9  A    between atoms: C_25  and  C_26
REMARK   10  A    between atoms: C_27  and  C_28
REMARK   11  A    between atoms: C_28  and  C_29
REMARK   12  A    between atoms: C_28  and  C_30
REMARK   13  A    between atoms: C_38  and  C_39
REMARK   14  A    between atoms: C_40  and  O_41
REMARK   15  A    between atoms: C_49  and  C_50
REMARK   16  A    between atoms: C_51  and  O_52
REMARK   17  A    between atoms: C_54  and  O_55
REMARK   18  A    between atoms: O_55  and  C_56
REMARK   19  A    between atoms: C_58  and  C_59
REMARK   20  A    between atoms: C_60  and  N_61
REMARK   21  A    between atoms: C_62  and  C_63
REMARK                            x       y       z     vdW  Elec       q    Type
REMARK                         _______ _______ _______ _____ _____    ______ ____
ROOT
ATOM      1  C   UNL     1      -0.337   0.861   0.577  0.00  0.00    +0.000 C 
ATOM      2  C   UNL     1      -0.069  -0.696   0.413  0.00  0.00    +0.000 C 
ATOM      3  C   UNL     1       0.516  -1.556  -0.466  0.00  0.00    +0.000 C 
ATOM      4  C   UNL     1      -0.380  -1.032   1.685  0.00  0.00    +0.000 C 
ATOM      5  C   UNL     1      -1.705  -0.722   2.326  0.00  0.00    +0.000 C 
ATOM      6  C   UNL     1      -2.540  -1.768   1.351  0.00  0.00    +0.000 C 
ATOM      7  C   UNL     1      -3.140  -0.499   0.510  0.00  0.00    +0.000 C 
ATOM      8  C   UNL     1      -3.522  -1.180  -0.917  0.00  0.00    +0.000 C 
ATOM      9  C   UNL     1      -3.888  -2.619  -0.239  0.00  0.00    +0.000 C 
ATOM     10  C   UNL     1      -4.505  -2.526   1.058  0.00  0.00    +0.000 C 
ATOM     11  C   UNL     1      -5.919  -2.262   0.833  0.00  0.00    +0.000 C 
ATOM     12  C   UNL     1      -6.456  -3.067  -0.112  0.00  0.00    +0.000 C 
ATOM     13  C   UNL     1      -5.426  -4.270  -0.287  0.00  0.00    +0.000 C 
ATOM     14  C   UNL     1      -6.578  -5.349  -0.631  0.00  0.00    +0.000 C 
ATOM     15  C   UNL     1      -5.528  -4.582   1.383  0.00  0.00    +0.000 C 
ATOM     16  O   UNL     1      -4.273  -3.793   1.636  0.00  0.00    +0.000 OA
ATOM     17  O   UNL     1      -3.877  -1.783   2.076  0.00  0.00    +0.000 OA
ATOM     18  O   UNL     1      -4.953  -0.588  -0.843  0.00  0.00    +0.000 OA
ATOM     19  C   UNL     1      -4.760   0.591  -1.620  0.00  0.00    +0.000 C 
ATOM     20  O   UNL     1      -5.700   0.860  -2.356  0.00  0.00    +0.000 OA
ATOM     21  C   UNL     1      -4.294   1.619  -0.455  0.00  0.00    +0.000 C 
ATOM     22  C   UNL     1      -5.583   2.539  -0.643  0.00  0.00    +0.000 C 
ATOM     23  C   UNL     1      -5.851   3.624  -1.147  0.00  0.00    +0.000 C 
ATOM     24  C   UNL     1      -7.175   3.972  -1.649  0.00  0.00    +0.000 C 
ATOM     25  C   UNL     1      -4.800   3.728  -2.358  0.00  0.00    +0.000 C 
ATOM     26  C   UNL     1      -3.390   3.951  -1.392  0.00  0.00    +0.000 C 
ATOM     27  O   UNL     1      -3.943   3.987  -0.007  0.00  0.00    +0.000 OA
ATOM     28  C   UNL     1      -3.072   3.178   0.718  0.00  0.00    +0.000 C 
ATOM     29  C   UNL     1      -2.063   2.636  -0.308  0.00  0.00    +0.000 C 
ATOM     30  C   UNL     1      -1.191   3.656  -0.292  0.00  0.00    +0.000 C 
ATOM     31  C   UNL     1      -0.494   3.529  -1.599  0.00  0.00    +0.000 C 
ATOM     32  C   UNL     1      -0.623   2.188  -1.696  0.00  0.00    +0.000 C 
ATOM     33  C   UNL     1       0.456   1.564  -0.753  0.00  0.00    +0.000 C 
ATOM     34  C   UNL     1       0.280   0.321  -1.827  0.00  0.00    +0.000 C 
ATOM     35  C   UNL     1      -3.121   2.362  -1.304  0.00  0.00    +0.000 C 
ENDROOT
BRANCH  15  36
ATOM     36  C   UNL     1      -4.686  -5.982   1.274  0.00  0.00    +0.000 C 
ATOM     37  C   UNL     1      -4.283  -6.096   2.763  0.00  0.00    +0.000 C 
ATOM     38  C   UNL     1      -3.459  -5.744   0.477  0.00  0.00    +0.000 C 
ENDBRANCH  15  36
BRANCH  25  39
ATOM     39  O   UNL     1      -4.975   5.242  -2.426  0.00  0.00    +0.000 OA
ATOM     40  H   UNL     1      -4.900   5.617  -1.534  0.00  0.00    +0.000 HD
ENDBRANCH  25  39
BRANCH  35  41
ATOM     41  O   UNL     1      -3.037   2.059  -2.564  0.00  0.00    +0.000 OA
ATOM     42  H   UNL     1      -2.872   1.108  -2.658  0.00  0.00    +0.000 HD
ENDBRANCH  35  41
BRANCH   1  43
ATOM     43  O   UNL     1       0.861   1.037   1.508  0.00  0.00    +0.000 OA
BRANCH  43  48
ATOM     44  C   UNL     1       4.813   0.962   1.924  0.00  0.00    +0.000 C 
ATOM     45  C   UNL     1       4.034  -0.574   1.755  0.00  0.00    +0.000 C 
ATOM     46  C   UNL     1       3.831  -0.607   0.141  0.00  0.00    +0.000 C 
ATOM     47  O   UNL     1       2.647  -0.113   2.059  0.00  0.00    +0.000 OA
ATOM     48  C   UNL     1       1.992   0.337   0.753  0.00  0.00    +0.000 C 
ATOM     49  C   UNL     1       2.808   1.791   0.623  0.00  0.00    +0.000 C 
ATOM     50  C   UNL     1       3.372   1.872   2.192  0.00  0.00    +0.000 C 
BRANCH  50  51
ATOM     51  O   UNL     1       4.165   3.116   2.150  0.00  0.00    +0.000 OA
ATOM     52  C   UNL     1       4.609   3.764   1.218  0.00  0.00    +0.000 C 
ENDBRANCH  50  51
BRANCH  44  53
ATOM     53  O   UNL     1       4.931   1.412   0.500  0.00  0.00    +0.000 OA
BRANCH  53  56
ATOM     54  C   UNL     1       8.114  -0.393   0.868  0.00  0.00    +0.000 C 
ATOM     55  C   UNL     1       6.670   0.197   1.322  0.00  0.00    +0.000 C 
ATOM     56  C   UNL     1       6.477   1.499   0.317  0.00  0.00    +0.000 C 
ATOM     57  O   UNL     1       6.251   0.800  -0.999  0.00  0.00    +0.000 OA
ATOM     58  C   UNL     1       7.548   0.306  -1.530  0.00  0.00    +0.000 C 
ATOM     59  C   UNL     1       8.504   1.252  -0.595  0.00  0.00    +0.000 C 
ATOM     60  C   UNL     1       7.334  -1.037  -0.496  0.00  0.00    +0.000 C 
BRANCH  60  61
ATOM     61  N   UNL     1       8.537  -1.842  -1.023  0.00  0.00    +0.000 N 
ATOM     62  C   UNL     1       8.226  -2.286  -2.353  0.00  0.00    +0.000 C 
ATOM     63  C   UNL     1       8.721  -3.593  -2.887  0.00  0.00    +0.000 C 
ATOM     64  O   UNL     1       7.874  -1.452  -3.184  0.00  0.00    +0.000 OA
ATOM     65  H   UNL     1       9.372  -2.021  -0.534  0.00  0.00    +0.000 HD
ENDBRANCH  60  61
BRANCH  54  67
ATOM     66  C   UNL     1       8.230  -1.157   2.878  0.00  0.00    +0.000 C 
ATOM     67  O   UNL     1       7.798  -1.643   1.673  0.00  0.00    +0.000 OA
ENDBRANCH  54  67
ENDBRANCH  53  56
ENDBRANCH  44  53
ENDBRANCH  43  48
ENDBRANCH   1  43
TORSDOF 10
