REMARK  Name = 2372
REMARK  14 active torsions:
REMARK  status: ('A' for Active; 'I' for Inactive)
REMARK    1  A    between atoms: O_1  and  C_11
REMARK    2  A    between atoms: O_1  and  C_17
REMARK    3  A    between atoms: O_2  and  C_7
REMARK    4  A    between atoms: O_3  and  C_14
REMARK    5  A    between atoms: O_3  and  C_24
REMARK    6  A    between atoms: O_4  and  C_16
REMARK    7  A    between atoms: O_4  and  C_25
REMARK    8  A    between atoms: N_5  and  C_6
REMARK    9  A    between atoms: N_5  and  C_8
REMARK   10  A    between atoms: C_6  and  C_7
REMARK   11  A    between atoms: C_7  and  C_11
REMARK   12  A    between atoms: C_8  and  C_9
REMARK   13  A    between atoms: C_9  and  C_10
REMARK   14  A    between atoms: C_19  and  C_23
REMARK                            x       y       z     vdW  Elec       q    Type
REMARK                         _______ _______ _______ _____ _____    ______ ____
ROOT
ATOM      1  N   UNL     1      -2.255   1.948   0.051  0.00  0.00    +0.000 NA
ATOM      2  H   UNL     1      -2.386   2.424   0.943  0.00  0.00    +0.000 HD
ENDROOT
BRANCH   1   3
ATOM      3  C   UNL     1      -3.486   1.270  -0.332  0.00  0.00    +0.000 C 
BRANCH   3   4
ATOM      4  C   UNL     1      -3.906   0.216   0.696  0.00  0.00    +0.000 C 
BRANCH   4   5
ATOM      5  O   UNL     1      -5.095  -0.421   0.221  0.00  0.00    +0.000 OA
ATOM      6  H   UNL     1      -5.372  -1.064   0.897  0.00  0.00    +0.000 HD
ENDBRANCH   4   5
BRANCH   4   7
ATOM      7  C   UNL     1      -2.842  -0.854   0.934  0.00  0.00    +0.000 C 
BRANCH   7   8
ATOM      8  O   UNL     1      -2.603  -1.545  -0.288  0.00  0.00    +0.000 OA
BRANCH   8   9
ATOM      9  C   UNL     1      -1.340  -2.036  -0.480  0.00  0.00    +0.000 A 
ATOM     10  C   UNL     1      -0.569  -2.426   0.615  0.00  0.00    +0.000 A 
ATOM     11  C   UNL     1       0.718  -2.926   0.420  0.00  0.00    +0.000 A 
ATOM     12  C   UNL     1      -0.823  -2.146  -1.771  0.00  0.00    +0.000 A 
ATOM     13  C   UNL     1       1.235  -3.036  -0.871  0.00  0.00    +0.000 A 
ATOM     14  C   UNL     1       0.465  -2.646  -1.966  0.00  0.00    +0.000 A 
ATOM     15  C   UNL     1       1.543  -3.342   1.591  0.00  0.00    +0.000 C 
ENDBRANCH   8   9
ENDBRANCH   7   8
ENDBRANCH   4   7
ENDBRANCH   3   4
ENDBRANCH   1   3
BRANCH   1  16
ATOM     16  C   UNL     1      -1.848   2.904  -0.970  0.00  0.00    +0.000 C 
BRANCH  16  17
ATOM     17  C   UNL     1      -0.549   3.608  -0.574  0.00  0.00    +0.000 C 
BRANCH  17  18
ATOM     18  C   UNL     1       0.585   2.628  -0.414  0.00  0.00    +0.000 A 
ATOM     19  C   UNL     1       0.828   2.039   0.827  0.00  0.00    +0.000 A 
ATOM     20  C   UNL     1       1.393   2.311  -1.506  0.00  0.00    +0.000 A 
ATOM     21  C   UNL     1       1.877   1.133   0.976  0.00  0.00    +0.000 A 
ATOM     22  C   UNL     1       2.442   1.405  -1.358  0.00  0.00    +0.000 A 
ATOM     23  C   UNL     1       2.685   0.816  -0.117  0.00  0.00    +0.000 A 
BRANCH  21  24
ATOM     24  O   UNL     1       2.106   0.565   2.193  0.00  0.00    +0.000 OA
ATOM     25  C   UNL     1       1.235   0.943   3.257  0.00  0.00    +0.000 C 
ENDBRANCH  21  24
BRANCH  23  26
ATOM     26  O   UNL     1       3.713  -0.068   0.016  0.00  0.00    +0.000 OA
ATOM     27  C   UNL     1       4.490  -0.338  -1.149  0.00  0.00    +0.000 C 
ENDBRANCH  23  26
ENDBRANCH  17  18
ENDBRANCH  16  17
ENDBRANCH   1  16
TORSDOF 11
