REMARK  Name = 
REMARK  28 active torsions:
REMARK  status: ('A' for Active; 'I' for Inactive)
REMARK    1  A    between atoms: C_1  and  C_2
REMARK    2  A    between atoms: C_2  and  C_3
REMARK    3  A    between atoms: C_8  and  O_9
REMARK    4  A    between atoms: C_10  and  C_11
REMARK    5  A    between atoms: C_12  and  O_13
REMARK    6  A    between atoms: O_13  and  C_14
REMARK    7  A    between atoms: C_16  and  C_17
REMARK    8  A    between atoms: C_18  and  O_19
REMARK    9  A    between atoms: C_20  and  N_21
REMARK   10  A    between atoms: N_21  and  C_22
REMARK   11  A    between atoms: N_21  and  C_23
REMARK   12  A    between atoms: C_24  and  O_25
REMARK   13  A    between atoms: C_26  and  C_27
REMARK   14  A    between atoms: C_27  and  C_28
REMARK   15  A    between atoms: C_28  and  N_29
REMARK   16  A    between atoms: C_31  and  C_32
REMARK   17  A    between atoms: C_34  and  C_35
REMARK   18  A    between atoms: C_38  and  C_39
REMARK   19  A    between atoms: C_44  and  C_45
REMARK   20  A    between atoms: C_47  and  C_48
REMARK   21  A    between atoms: C_48  and  O_49
REMARK   22  A    between atoms: O_49  and  C_50
REMARK   23  A    between atoms: C_52  and  C_53
REMARK   24  A    between atoms: C_54  and  O_55
REMARK   25  A    between atoms: C_56  and  O_57
REMARK   26  A    between atoms: O_57  and  C_58
REMARK   27  A    between atoms: C_59  and  O_60
REMARK   28  A    between atoms: O_60  and  C_61
REMARK                            x       y       z     vdW  Elec       q    Type
REMARK                         _______ _______ _______ _____ _____    ______ ____
ROOT
ATOM      1  C   UNL     1       2.991   0.233  -1.078  0.00  0.00    +0.000 C 
ATOM      2  O   UNL     1       1.541   0.058  -0.657  0.00  0.00    +0.000 OA
ATOM      3  C   UNL     1       1.131   1.398  -0.587  0.00  0.00    +0.000 C 
ATOM      4  O   UNL     1       0.604   2.116  -1.460  0.00  0.00    +0.000 OA
ATOM      5  C   UNL     1       1.226   1.731   0.859  0.00  0.00    +0.000 C 
ATOM      6  C   UNL     1      -0.016   0.909   1.572  0.00  0.00    +0.000 C 
ATOM      7  C   UNL     1      -1.092   1.406   0.355  0.00  0.00    +0.000 C 
ATOM      8  C   UNL     1      -1.099   2.952   0.778  0.00  0.00    +0.000 C 
ATOM      9  C   UNL     1      -2.521   1.027   1.167  0.00  0.00    +0.000 C 
ATOM     10  C   UNL     1      -2.472  -0.655   0.908  0.00  0.00    +0.000 C 
ATOM     11  C   UNL     1      -1.975  -0.610  -0.623  0.00  0.00    +0.000 C 
ATOM     12  C   UNL     1      -1.550  -2.165  -0.900  0.00  0.00    +0.000 C 
ATOM     13  C   UNL     1      -0.256  -1.681  -1.776  0.00  0.00    +0.000 C 
ATOM     14  C   UNL     1      -0.758  -2.388   0.473  0.00  0.00    +0.000 C 
ATOM     15  O   UNL     1      -1.439  -2.848   1.433  0.00  0.00    +0.000 OA
ATOM     16  C   UNL     1       0.247  -3.358   0.160  0.00  0.00    +0.000 C 
ATOM     17  C   UNL     1       1.312  -3.140  -0.510  0.00  0.00    +0.000 C 
ATOM     18  C   UNL     1       2.482  -2.916   0.370  0.00  0.00    +0.000 C 
ATOM     19  C   UNL     1       3.063  -3.959   1.289  0.00  0.00    +0.000 C 
ATOM     20  C   UNL     1       2.526  -1.604   0.641  0.00  0.00    +0.000 C 
ATOM     21  C   UNL     1       3.745  -1.004  -0.189  0.00  0.00    +0.000 C 
ENDROOT
BRANCH   1  23
ATOM     22  C   UNL     1       3.695  -0.911  -2.923  0.00  0.00    +0.000 C 
ATOM     23  C   UNL     1       2.770  -0.785  -2.349  0.00  0.00    +0.000 C 
ENDBRANCH   1  23
BRANCH   6  24
ATOM     24  O   UNL     1      -0.270   1.988   2.588  0.00  0.00    +0.000 OA
ATOM     25  H   UNL     1      -0.271   2.852   2.149  0.00  0.00    +0.000 HD
ENDBRANCH   6  24
BRANCH   9  26
ATOM     26  O   UNL     1      -3.333   1.355  -0.060  0.00  0.00    +0.000 OA
BRANCH  26  27
ATOM     27  C   UNL     1      -3.588   2.784   0.401  0.00  0.00    +0.000 C 
ATOM     28  O   UNL     1      -4.854   2.417   1.166  0.00  0.00    +0.000 OA
ATOM     29  C   UNL     1      -4.913   3.780   1.821  0.00  0.00    +0.000 C 
ATOM     30  C   UNL     1      -6.293   3.404   2.618  0.00  0.00    +0.000 C 
ATOM     31  C   UNL     1      -5.838   4.478   0.549  0.00  0.00    +0.000 C 
ATOM     32  C   UNL     1      -4.484   4.770  -0.430  0.00  0.00    +0.000 C 
ATOM     33  C   UNL     1      -4.556   3.163  -0.975  0.00  0.00    +0.000 C 
BRANCH  32  34
ATOM     34  N   UNL     1      -5.324   5.432  -1.542  0.00  0.00    +0.000 NA
ATOM     35  C   UNL     1      -4.368   6.316  -2.123  0.00  0.00    +0.000 C 
ATOM     36  C   UNL     1      -5.771   4.489  -2.495  0.00  0.00    +0.000 C 
ENDBRANCH  32  34
BRANCH  31  37
ATOM     37  O   UNL     1      -5.730   5.826   1.192  0.00  0.00    +0.000 OA
ATOM     38  H   UNL     1      -4.810   5.988   1.452  0.00  0.00    +0.000 HD
ENDBRANCH  31  37
BRANCH  33  39
ATOM     39  O   UNL     1      -3.386   3.329  -1.885  0.00  0.00    +0.000 OA
ATOM     40  H   UNL     1      -2.691   3.829  -1.431  0.00  0.00    +0.000 HD
ENDBRANCH  33  39
ENDBRANCH  26  27
ENDBRANCH   9  26
BRANCH  10  41
ATOM     41  C   UNL     1      -4.031  -0.813   0.496  0.00  0.00    +0.000 C 
BRANCH  41  42
ATOM     42  C   UNL     1      -4.681  -1.883   1.291  0.00  0.00    +0.000 C 
BRANCH  42  43
ATOM     43  N   UNL     1      -5.283  -2.951   0.599  0.00  0.00    +0.000 NA
ATOM     44  C   UNL     1      -4.535  -4.064   0.216  0.00  0.00    +0.000 C 
ATOM     45  C   UNL     1      -5.356  -5.431   0.533  0.00  0.00    +0.000 C 
ATOM     46  C   UNL     1      -4.532  -6.274  -0.595  0.00  0.00    +0.000 C 
ATOM     47  C   UNL     1      -6.550  -5.039  -0.505  0.00  0.00    +0.000 C 
ATOM     48  C   UNL     1      -7.360  -4.080   0.537  0.00  0.00    +0.000 C 
ATOM     49  C   UNL     1      -8.584  -3.840  -0.510  0.00  0.00    +0.000 C 
ATOM     50  C   UNL     1      -6.564  -2.748   0.037  0.00  0.00    +0.000 C 
ENDBRANCH  42  43
ENDBRANCH  41  42
ENDBRANCH  10  41
BRANCH  21  51
ATOM     51  C   UNL     1       4.224   0.110   0.899  0.00  0.00    +0.000 C 
BRANCH  51  52
ATOM     52  O   UNL     1       5.177   0.861   0.162  0.00  0.00    +0.000 OA
BRANCH  52  53
ATOM     53  C   UNL     1       6.499   0.224   0.548  0.00  0.00    +0.000 C 
ATOM     54  O   UNL     1       7.261   1.545   0.497  0.00  0.00    +0.000 OA
ATOM     55  C   UNL     1       8.569   1.044   1.049  0.00  0.00    +0.000 C 
ATOM     56  C   UNL     1       9.274   2.519   0.824  0.00  0.00    +0.000 C 
ATOM     57  C   UNL     1       9.260   0.548  -0.430  0.00  0.00    +0.000 C 
ATOM     58  C   UNL     1       8.415  -0.911  -0.625  0.00  0.00    +0.000 C 
ATOM     59  C   UNL     1       7.016  -0.035  -1.078  0.00  0.00    +0.000 C 
BRANCH  57  60
ATOM     60  O   UNL     1      10.348  -0.223   0.259  0.00  0.00    +0.000 OA
ATOM     61  H   UNL     1       9.958  -0.794   0.939  0.00  0.00    +0.000 HD
ENDBRANCH  57  60
BRANCH  58  62
ATOM     62  O   UNL     1       8.050  -1.197   0.783  0.00  0.00    +0.000 OA
ATOM     63  C   UNL     1       8.757  -1.933   1.506  0.00  0.00    +0.000 C 
ENDBRANCH  58  62
BRANCH  59  64
ATOM     64  O   UNL     1       6.357  -1.349  -1.333  0.00  0.00    +0.000 OA
ATOM     65  C   UNL     1       6.822  -1.418  -2.671  0.00  0.00    +0.000 C 
ENDBRANCH  59  64
ENDBRANCH  52  53
ENDBRANCH  51  52
ENDBRANCH  21  51
TORSDOF 16
