REMARK  Name = 
REMARK  26 active torsions:
REMARK  status: ('A' for Active; 'I' for Inactive)
REMARK    1  A    between atoms: C_1  and  C_2
REMARK    2  A    between atoms: C_2  and  C_3
REMARK    3  A    between atoms: C_3  and  C_4
REMARK    4  A    between atoms: C_3  and  C_7
REMARK    5  A    between atoms: C_4  and  O_6
REMARK    6  A    between atoms: C_10  and  C_11
REMARK    7  A    between atoms: C_12  and  C_13
REMARK    8  A    between atoms: C_13  and  C_14
REMARK    9  A    between atoms: C_13  and  C_15
REMARK   10  A    between atoms: C_15  and  O_16
REMARK   11  A    between atoms: C_15  and  C_17
REMARK   12  A    between atoms: C_17  and  C_18
REMARK   13  A    between atoms: C_17  and  C_19
REMARK   14  A    between atoms: C_19  and  C_21
REMARK   15  A    between atoms: C_21  and  C_22
REMARK   16  A    between atoms: C_21  and  C_24
REMARK   17  A    between atoms: C_22  and  C_23
REMARK   18  A    between atoms: C_29  and  O_30
REMARK   19  A    between atoms: C_34  and  C_35
REMARK   20  A    between atoms: C_34  and  C_36
REMARK   21  A    between atoms: C_39  and  O_40
REMARK   22  A    between atoms: C_39  and  C_41
REMARK   23  A    between atoms: C_41  and  C_42
REMARK   24  A    between atoms: C_43  and  C_44
REMARK   25  A    between atoms: C_48  and  C_49
REMARK   26  A    between atoms: C_51  and  C_52
REMARK                            x       y       z     vdW  Elec       q    Type
REMARK                         _______ _______ _______ _____ _____    ______ ____
ROOT
ATOM      1  C   UNL     1       0.131   0.284  -0.022  0.00  0.00    +0.000 C 
ATOM      2  O   UNL     1       0.987  -0.902  -0.333  0.00  0.00    +0.000 OA
ATOM      3  C   UNL     1       1.686  -0.260  -1.308  0.00  0.00    +0.000 C 
ATOM      4  C   UNL     1       1.909   1.135  -1.206  0.00  0.00    +0.000 C 
ATOM      5  C   UNL     1       2.609   1.486  -0.160  0.00  0.00    +0.000 C 
ATOM      6  C   UNL     1       4.051   0.792   0.090  0.00  0.00    +0.000 C 
ATOM      7  C   UNL     1       4.006  -0.022  -1.341  0.00  0.00    +0.000 C 
ATOM      8  C   UNL     1       4.348   1.082  -2.254  0.00  0.00    +0.000 C 
ATOM      9  C   UNL     1       5.881   1.024  -2.259  0.00  0.00    +0.000 C 
ATOM     10  C   UNL     1       6.071  -0.415  -2.126  0.00  0.00    +0.000 C 
ATOM     11  C   UNL     1       6.283  -1.215  -3.350  0.00  0.00    +0.000 C 
ATOM     12  O   UNL     1       5.089  -0.899  -1.294  0.00  0.00    +0.000 OA
ATOM     13  O   UNL     1       2.946  -0.775  -1.460  0.00  0.00    +0.000 OA
ATOM     14  C   UNL     1       1.000  -0.759  -2.688  0.00  0.00    +0.000 C 
ATOM     15  C   UNL     1       0.704   0.726  -3.321  0.00  0.00    +0.000 C 
ATOM     16  C   UNL     1      -0.477  -1.035  -2.158  0.00  0.00    +0.000 C 
ATOM     17  C   UNL     1      -1.162  -0.189  -1.024  0.00  0.00    +0.000 C 
ATOM     18  C   UNL     1      -1.195   1.230  -1.838  0.00  0.00    +0.000 C 
ENDROOT
BRANCH  10  19
ATOM     19  C   UNL     1       7.361  -0.756  -1.172  0.00  0.00    +0.000 C 
ATOM     20  C   UNL     1       8.344   0.381  -1.855  0.00  0.00    +0.000 C 
ATOM     21  C   UNL     1       9.428   0.184  -0.801  0.00  0.00    +0.000 C 
ATOM     22  C   UNL     1       9.076   0.644   0.540  0.00  0.00    +0.000 C 
ATOM     23  C   UNL     1       7.728  -0.118   1.098  0.00  0.00    +0.000 C 
ATOM     24  C   UNL     1       8.258  -1.603   0.601  0.00  0.00    +0.000 C 
ATOM     25  O   UNL     1       6.931   0.246  -0.135  0.00  0.00    +0.000 OA
BRANCH  22  26
ATOM     26  O   UNL     1       8.735   1.970   0.659  0.00  0.00    +0.000 OA
ATOM     27  H   UNL     1       9.471   2.522   0.353  0.00  0.00    +0.000 HD
ENDBRANCH  22  26
BRANCH  22  28
ATOM     28  C   UNL     1      10.067   0.168   1.567  0.00  0.00    +0.000 C 
ATOM     29  C   UNL     1       9.429   0.019   2.945  0.00  0.00    +0.000 C 
ENDBRANCH  22  28
ENDBRANCH  10  19
BRANCH   6  30
ATOM     30  O   UNL     1       3.475  -0.390   0.860  0.00  0.00    +0.000 OA
ATOM     31  H   UNL     1       2.711  -0.746   0.382  0.00  0.00    +0.000 HD
ENDBRANCH   6  30
BRANCH   1  32
ATOM     32  C   UNL     1      -0.461  -0.577   1.335  0.00  0.00    +0.000 C 
BRANCH  32  33
ATOM     33  C   UNL     1      -1.920   0.040   1.381  0.00  0.00    +0.000 C 
ATOM     34  O   UNL     1      -1.969   1.137   0.959  0.00  0.00    +0.000 OA
BRANCH  33  35
ATOM     35  C   UNL     1      -3.063  -0.805   0.671  0.00  0.00    +0.000 C 
ATOM     36  C   UNL     1      -2.490  -2.230   1.204  0.00  0.00    +0.000 C 
BRANCH  35  37
ATOM     37  C   UNL     1      -4.243  -0.798   1.910  0.00  0.00    +0.000 C 
BRANCH  37  38
ATOM     38  C   UNL     1      -5.344   0.113   0.976  0.00  0.00    +0.000 C 
ATOM     39  C   UNL     1      -4.576   1.514   0.956  0.00  0.00    +0.000 C 
BRANCH  38  45
ATOM     40  C   UNL     1      -7.232  -0.807   0.474  0.00  0.00    +0.000 C 
ATOM     41  C   UNL     1      -7.917   0.605  -0.009  0.00  0.00    +0.000 C 
ATOM     42  C   UNL     1      -6.973   1.698   0.348  0.00  0.00    +0.000 C 
ATOM     43  C   UNL     1      -7.245   1.643   1.943  0.00  0.00    +0.000 C 
ATOM     44  C   UNL     1      -6.168   2.781   2.370  0.00  0.00    +0.000 C 
ATOM     45  C   UNL     1      -6.279   0.304   2.365  0.00  0.00    +0.000 C 
ATOM     46  O   UNL     1      -7.419  -0.577   1.945  0.00  0.00    +0.000 OA
BRANCH  40  47
ATOM     47  C   UNL     1      -8.699  -1.705   0.419  0.00  0.00    +0.000 C 
BRANCH  47  49
ATOM     48  C   UNL     1     -10.997  -1.001   0.631  0.00  0.00    +0.000 C 
ATOM     49  C   UNL     1      -9.699  -0.539   0.956  0.00  0.00    +0.000 C 
ENDBRANCH  47  49
BRANCH  47  50
ATOM     50  C   UNL     1      -8.856  -1.407  -1.135  0.00  0.00    +0.000 C 
ATOM     51  O   UNL     1      -8.574  -2.396  -1.879  0.00  0.00    +0.000 OA
BRANCH  50  52
ATOM     52  O   UNL     1      -9.709  -0.499  -1.632  0.00  0.00    +0.000 OA
ATOM     53  H   UNL     1      -9.948   0.249  -1.121  0.00  0.00    +0.000 HD
ENDBRANCH  50  52
ENDBRANCH  47  50
ENDBRANCH  40  47
ENDBRANCH  38  45
ENDBRANCH  37  38
BRANCH  37  54
ATOM     54  O   UNL     1      -3.717   0.343   2.729  0.00  0.00    +0.000 OA
ATOM     55  H   UNL     1      -3.508   1.090   2.147  0.00  0.00    +0.000 HD
ENDBRANCH  37  54
ENDBRANCH  35  37
ENDBRANCH  33  35
ENDBRANCH  32  33
BRANCH  32  56
ATOM     56  C   UNL     1       0.139   0.443   2.436  0.00  0.00    +0.000 C 
ATOM     57  C   UNL     1      -0.287   1.801   2.389  0.00  0.00    +0.000 C 
ENDBRANCH  32  56
ENDBRANCH   1  32
TORSDOF 16
