REMARK  Name = 189821
REMARK  9 active torsions:
REMARK  status: ('A' for Active; 'I' for Inactive)
REMARK    1  A    between atoms: O_2  and  C_16
REMARK    2  A    between atoms: O_4  and  C_27
REMARK    3  A    between atoms: O_4  and  C_31
REMARK    4  A    between atoms: C_8  and  C_19
REMARK    5  A    between atoms: C_11  and  C_22
REMARK    6  A    between atoms: C_17  and  C_23
REMARK    7  A    between atoms: C_22  and  C_27
REMARK    8  A    between atoms: C_25  and  C_29
REMARK    9  A    between atoms: C_31  and  C_32
REMARK                            x       y       z     vdW  Elec       q    Type
REMARK                         _______ _______ _______ _____ _____    ______ ____
ROOT
ATOM      1  O   UNL     1       2.208  -3.234  -0.499  0.00  0.00    +0.000 OA
ATOM      2  O   UNL     1      -6.784   0.695  -2.088  0.00  0.00    +0.000 OA
ATOM      3  N   UNL     1       2.250  -1.099  -1.325  0.00  0.00    +0.000 NA
ATOM      4  C   UNL     1       0.924  -0.203   0.630  0.00  0.00    +0.000 C 
ATOM      5  C   UNL     1      -0.165  -1.286   0.456  0.00  0.00    +0.000 C 
ATOM      6  C   UNL     1      -1.553  -0.843   0.941  0.00  0.00    +0.000 C 
ATOM      7  C   UNL     1       2.174  -0.982   0.143  0.00  0.00    +0.000 C 
ATOM      8  C   UNL     1      -1.996   0.415   0.113  0.00  0.00    +0.000 C 
ATOM      9  C   UNL     1       0.477  -2.533   1.067  0.00  0.00    +0.000 C 
ATOM     10  C   UNL     1       0.510   1.019  -0.212  0.00  0.00    +0.000 C 
ATOM     11  C   UNL     1       1.957  -2.421   0.643  0.00  0.00    +0.000 C 
ATOM     12  C   UNL     1      -0.907   1.536   0.125  0.00  0.00    +0.000 C 
ATOM     13  C   UNL     1      -3.466   0.874   0.467  0.00  0.00    +0.000 C 
ATOM     14  C   UNL     1      -2.566  -1.992   0.792  0.00  0.00    +0.000 C 
ATOM     15  C   UNL     1       1.138   0.211   2.115  0.00  0.00    +0.000 C 
ATOM     16  C   UNL     1      -3.986  -1.560   1.137  0.00  0.00    +0.000 C 
ATOM     17  C   UNL     1      -4.374  -0.353   0.324  0.00  0.00    +0.000 C 
ATOM     18  C   UNL     1      -3.626   1.425   1.902  0.00  0.00    +0.000 C 
ATOM     19  C   UNL     1      -3.902   1.992  -0.468  0.00  0.00    +0.000 C 
ATOM     20  C   UNL     1       2.296  -2.374  -1.536  0.00  0.00    +0.000 C 
ATOM     21  C   UNL     1      -5.434  -0.405  -0.498  0.00  0.00    +0.000 C 
ATOM     22  C   UNL     1      -4.955   1.946  -1.290  0.00  0.00    +0.000 C 
ATOM     23  C   UNL     1       2.419  -3.015  -2.869  0.00  0.00    +0.000 C 
ATOM     24  C   UNL     1      -5.805   0.743  -1.351  0.00  0.00    +0.000 C 
ENDROOT
BRANCH  12  25
ATOM     25  O   UNL     1      -0.881   2.216   1.372  0.00  0.00    +0.000 OA
ATOM     26  H   UNL     1      -0.229   2.934   1.306  0.00  0.00    +0.000 HD
ENDBRANCH  12  25
BRANCH   7  28
ATOM     27  O   UNL     1       4.293  -1.037   1.237  0.00  0.00    +0.000 OA
ATOM     28  C   UNL     1       3.492  -0.395   0.560  0.00  0.00    +0.000 C 
BRANCH  28  29
ATOM     29  C   UNL     1       3.770   1.021   0.100  0.00  0.00    +0.000 C 
BRANCH  29  30
ATOM     30  O   UNL     1       5.155   1.221  -0.089  0.00  0.00    +0.000 OA
BRANCH  30  32
ATOM     31  O   UNL     1       4.780   3.410  -0.725  0.00  0.00    +0.000 OA
ATOM     32  C   UNL     1       5.534   2.471  -0.507  0.00  0.00    +0.000 C 
ATOM     33  C   UNL     1       7.023   2.536  -0.665  0.00  0.00    +0.000 C 
ENDBRANCH  30  32
ENDBRANCH  29  30
ENDBRANCH  28  29
ENDBRANCH   7  28
TORSDOF 5
