REMARK  Name = 6918502
REMARK  18 active torsions:
REMARK  status: ('A' for Active; 'I' for Inactive)
REMARK    1  A    between atoms: O_3  and  C_12
REMARK    2  A    between atoms: O_3  and  C_20
REMARK    3  A    between atoms: O_4  and  C_15
REMARK    4  A    between atoms: O_4  and  C_21
REMARK    5  A    between atoms: O_6  and  C_32
REMARK    6  A    between atoms: O_6  and  C_33
REMARK    7  A    between atoms: N_7  and  C_34
REMARK    8  A    between atoms: N_7  and  C_35
REMARK    9  A    between atoms: N_7  and  C_36
REMARK   10  A    between atoms: C_8  and  C_10
REMARK   11  A    between atoms: C_10  and  C_17
REMARK   12  A    between atoms: C_11  and  C_18
REMARK   13  A    between atoms: C_18  and  C_19
REMARK   14  A    between atoms: C_21  and  C_25
REMARK   15  A    between atoms: C_22  and  C_23
REMARK   16  A    between atoms: C_22  and  C_24
REMARK   17  A    between atoms: C_26  and  C_27
REMARK   18  A    between atoms: C_33  and  C_34
REMARK                            x       y       z     vdW  Elec       q    Type
REMARK                         _______ _______ _______ _____ _____    ______ ____
ROOT
ATOM      1  O   UNL     1       5.213  -1.309   2.120  0.00  0.00    +0.000 OA
ATOM      2  C   UNL     1       3.641  -0.629   0.303  0.00  0.00    +0.000 C 
ATOM      3  C   UNL     1       3.855  -0.998   1.769  0.00  0.00    +0.000 C 
ATOM      4  C   UNL     1       3.451  -1.925  -0.527  0.00  0.00    +0.000 C 
ATOM      5  C   UNL     1       4.655  -0.129   2.719  0.00  0.00    +0.000 C 
ATOM      6  C   UNL     1       2.845  -1.940   2.369  0.00  0.00    +0.000 C 
ATOM      7  C   UNL     1       2.377  -2.849   0.065  0.00  0.00    +0.000 C 
ATOM      8  C   UNL     1       2.696  -3.199   1.518  0.00  0.00    +0.000 C 
ENDROOT
BRANCH   2  10
ATOM      9  O   UNL     1       4.397   0.831  -1.552  0.00  0.00    +0.000 OA
ATOM     10  C   UNL     1       4.737   0.229  -0.296  0.00  0.00    +0.000 C 
ATOM     11  C   UNL     1       4.587   1.716  -0.440  0.00  0.00    +0.000 C 
ATOM     12  C   UNL     1       6.087  -0.384  -0.267  0.00  0.00    +0.000 C 
BRANCH  11  13
ATOM     13  C   UNL     1       5.768   2.600  -0.577  0.00  0.00    +0.000 C 
BRANCH  13  14
ATOM     14  C   UNL     1       5.464   3.999  -1.058  0.00  0.00    +0.000 C 
ATOM     15  C   UNL     1       5.268   5.102  -0.311  0.00  0.00    +0.000 C 
ATOM     16  C   UNL     1       4.968   6.470  -0.856  0.00  0.00    +0.000 C 
ATOM     17  C   UNL     1       5.356   5.034   1.190  0.00  0.00    +0.000 C 
ENDBRANCH  13  14
ENDBRANCH  11  13
ENDBRANCH   2  10
BRANCH   4  18
ATOM     18  O   UNL     1       3.050  -1.617  -1.862  0.00  0.00    +0.000 OA
ATOM     19  C   UNL     1       3.309  -2.701  -2.738  0.00  0.00    +0.000 C 
ENDBRANCH   4  18
BRANCH   7  20
ATOM     20  O   UNL     1       1.106  -2.200   0.003  0.00  0.00    +0.000 OA
BRANCH  20  22
ATOM     21  O   UNL     1       0.046  -4.242  -0.218  0.00  0.00    +0.000 OA
ATOM     22  C   UNL     1       0.028  -3.023  -0.140  0.00  0.00    +0.000 C 
BRANCH  22  23
ATOM     23  C   UNL     1      -1.186  -2.178  -0.187  0.00  0.00    +0.000 C 
ATOM     24  C   UNL     1      -2.388  -2.754  -0.326  0.00  0.00    +0.000 C 
BRANCH  24  25
ATOM     25  C   UNL     1      -3.666  -2.023  -0.375  0.00  0.00    +0.000 A 
ATOM     26  C   UNL     1      -4.862  -2.689  -0.104  0.00  0.00    +0.000 A 
ATOM     27  C   UNL     1      -3.681  -0.665  -0.692  0.00  0.00    +0.000 A 
ATOM     28  C   UNL     1      -6.072  -1.997  -0.150  0.00  0.00    +0.000 A 
ATOM     29  C   UNL     1      -4.891   0.027  -0.739  0.00  0.00    +0.000 A 
ATOM     30  C   UNL     1      -6.086  -0.639  -0.468  0.00  0.00    +0.000 A 
BRANCH  30  31
ATOM     31  O   UNL     1      -7.267   0.037  -0.513  0.00  0.00    +0.000 OA
BRANCH  31  32
ATOM     32  C   UNL     1      -7.234   1.425  -0.187  0.00  0.00    +0.000 C 
BRANCH  32  33
ATOM     33  C   UNL     1      -8.578   1.821   0.403  0.00  0.00    +0.000 C 
BRANCH  33  34
ATOM     34  N   UNL     1      -8.584   3.230   0.768  0.00  0.00    +0.000 NA
ATOM     35  C   UNL     1      -9.618   3.501   1.770  0.00  0.00    +0.000 C 
ATOM     36  C   UNL     1      -8.793   4.070  -0.414  0.00  0.00    +0.000 C 
ENDBRANCH  33  34
ENDBRANCH  32  33
ENDBRANCH  31  32
ENDBRANCH  30  31
ENDBRANCH  24  25
ENDBRANCH  22  23
ENDBRANCH  20  22
ENDBRANCH   7  20
TORSDOF 12
