REMARK  Name = 9403
REMARK  7 active torsions:
REMARK  status: ('A' for Active; 'I' for Inactive)
REMARK    1  A    between atoms: O_1  and  C_8
REMARK    2  A    between atoms: O_1  and  C_20
REMARK    3  A    between atoms: O_3  and  C_22
REMARK    4  A    between atoms: C_4  and  C_14
REMARK    5  A    between atoms: C_20  and  C_23
REMARK    6  A    between atoms: C_23  and  C_25
REMARK    7  A    between atoms: C_24  and  C_25
REMARK                            x       y       z     vdW  Elec       q    Type
REMARK                         _______ _______ _______ _____ _____    ______ ____
ROOT
ATOM      1  C   UNL     1       0.288  -0.731  -0.183  0.00  0.00    +0.000 C 
ATOM      2  C   UNL     1      -0.537  -0.647   1.116  0.00  0.00    +0.000 C 
ATOM      3  C   UNL     1      -1.886   0.038   0.900  0.00  0.00    +0.000 C 
ATOM      4  C   UNL     1      -2.713  -0.801  -0.121  0.00  0.00    +0.000 C 
ATOM      5  C   UNL     1       1.566  -1.387   0.375  0.00  0.00    +0.000 C 
ATOM      6  C   UNL     1      -0.491  -1.590  -1.188  0.00  0.00    +0.000 C 
ATOM      7  C   UNL     1       0.447  -0.059   2.124  0.00  0.00    +0.000 C 
ATOM      8  C   UNL     1      -1.911  -1.043  -1.429  0.00  0.00    +0.000 C 
ATOM      9  C   UNL     1       1.805  -0.657   1.712  0.00  0.00    +0.000 C 
ATOM     10  C   UNL     1      -2.689   0.177   2.195  0.00  0.00    +0.000 C 
ATOM     11  C   UNL     1       0.623   0.636  -0.831  0.00  0.00    +0.000 C 
ATOM     12  C   UNL     1      -4.108  -0.215  -0.318  0.00  0.00    +0.000 A 
ATOM     13  C   UNL     1      -3.953   0.992   1.935  0.00  0.00    +0.000 C 
ATOM     14  C   UNL     1      -4.693   0.594   0.681  0.00  0.00    +0.000 A 
ATOM     15  C   UNL     1      -4.879  -0.534  -1.449  0.00  0.00    +0.000 A 
ATOM     16  C   UNL     1      -5.993   1.099   0.501  0.00  0.00    +0.000 A 
ATOM     17  C   UNL     1      -6.173  -0.033  -1.611  0.00  0.00    +0.000 A 
ATOM     18  C   UNL     1      -6.728   0.787  -0.638  0.00  0.00    +0.000 A 
ENDROOT
BRANCH  18  19
ATOM     19  O   UNL     1      -7.986   1.280  -0.796  0.00  0.00    +0.000 OA
ATOM     20  H   UNL     1      -8.346   0.961  -1.642  0.00  0.00    +0.000 HD
ENDBRANCH  18  19
BRANCH   5  21
ATOM     21  O   UNL     1       2.675  -1.267  -0.494  0.00  0.00    +0.000 OA
BRANCH  21  23
ATOM     22  O   UNL     1       4.027  -2.313   1.056  0.00  0.00    +0.000 OA
ATOM     23  C   UNL     1       3.864  -1.775  -0.031  0.00  0.00    +0.000 C 
BRANCH  23  24
ATOM     24  C   UNL     1       4.941  -1.568  -1.071  0.00  0.00    +0.000 C 
BRANCH  24  25
ATOM     25  C   UNL     1       6.079  -0.693  -0.549  0.00  0.00    +0.000 C 
BRANCH  25  26
ATOM     26  C   UNL     1       5.587   0.693  -0.171  0.00  0.00    +0.000 C 
ATOM     27  C   UNL     1       6.701   1.614   0.316  0.00  0.00    +0.000 C 
ATOM     28  C   UNL     1       5.016   1.471  -1.352  0.00  0.00    +0.000 C 
ATOM     29  C   UNL     1       6.107   3.013   0.194  0.00  0.00    +0.000 C 
ATOM     30  C   UNL     1       5.013   2.918  -0.872  0.00  0.00    +0.000 C 
ENDBRANCH  25  26
ENDBRANCH  24  25
ENDBRANCH  23  24
ENDBRANCH  21  23
ENDBRANCH   5  21
TORSDOF 6
