REMARK  Name = 448011
REMARK  11 active torsions:
REMARK  status: ('A' for Active; 'I' for Inactive)
REMARK    1  A    between atoms: O_1  and  C_17
REMARK    2  A    between atoms: O_1  and  C_26
REMARK    3  A    between atoms: O_2  and  C_16
REMARK    4  A    between atoms: O_3  and  C_28
REMARK    5  A    between atoms: C_5  and  C_6
REMARK    6  A    between atoms: C_5  and  C_7
REMARK    7  A    between atoms: C_8  and  C_18
REMARK    8  A    between atoms: C_9  and  C_19
REMARK    9  A    between atoms: C_10  and  C_12
REMARK   10  A    between atoms: C_12  and  C_21
REMARK   11  A    between atoms: C_26  and  C_28
REMARK                            x       y       z     vdW  Elec       q    Type
REMARK                         _______ _______ _______ _____ _____    ______ ____
ROOT
ATOM      1  C   UNL     1      -0.604  -3.165   0.001  0.00  0.00    +0.000 C 
ENDROOT
BRANCH   1   2
ATOM      2  C   UNL     1       0.710  -2.411   0.041  0.00  0.00    +0.000 A 
ATOM      3  C   UNL     1       1.380  -2.280   1.246  0.00  0.00    +0.000 A 
ATOM      4  C   UNL     1       1.216  -1.868  -1.129  0.00  0.00    +0.000 A 
ATOM      5  C   UNL     1       2.590  -1.587   1.282  0.00  0.00    +0.000 A 
ATOM      6  C   UNL     1       2.425  -1.175  -1.093  0.00  0.00    +0.000 A 
ATOM      7  C   UNL     1       3.113  -1.034   0.113  0.00  0.00    +0.000 A 
ATOM      8  C   UNL     1       0.843  -2.863   2.511  0.00  0.00    +0.000 C 
ATOM      9  C   UNL     1       0.499  -2.004  -2.433  0.00  0.00    +0.000 C 
BRANCH   7  10
ATOM     10  O   UNL     1       4.293  -0.357   0.148  0.00  0.00    +0.000 OA
BRANCH  10  11
ATOM     11  C   UNL     1       4.468   0.693  -0.801  0.00  0.00    +0.000 C 
BRANCH  11  13
ATOM     12  O   UNL     1       5.886   1.729   0.878  0.00  0.00    +0.000 OA
ATOM     13  C   UNL     1       5.382   1.744  -0.234  0.00  0.00    +0.000 C 
BRANCH  13  14
ATOM     14  O   UNL     1       5.579   2.733  -1.143  0.00  0.00    +0.000 OA
ATOM     15  H   UNL     1       6.173   3.433  -0.798  0.00  0.00    +0.000 HD
ENDBRANCH  13  14
ENDBRANCH  11  13
ENDBRANCH  10  11
ENDBRANCH   7  10
ENDBRANCH   1   2
BRANCH   1  16
ATOM     16  C   UNL     1      -1.802  -2.286  -0.122  0.00  0.00    +0.000 A 
ATOM     17  C   UNL     1      -3.031  -0.336   0.537  0.00  0.00    +0.000 A 
ATOM     18  C   UNL     1      -1.911  -1.139   0.665  0.00  0.00    +0.000 A 
ATOM     19  C   UNL     1      -2.815  -2.611  -1.024  0.00  0.00    +0.000 A 
ATOM     20  C   UNL     1      -4.046  -0.643  -0.352  0.00  0.00    +0.000 A 
ATOM     21  C   UNL     1      -3.937  -1.790  -1.139  0.00  0.00    +0.000 A 
BRANCH  20  22
ATOM     22  O   UNL     1      -5.149   0.147  -0.476  0.00  0.00    +0.000 OA
ATOM     23  H   UNL     1      -5.739  -0.235  -1.149  0.00  0.00    +0.000 HD
ENDBRANCH  20  22
BRANCH  17  24
ATOM     24  C   UNL     1      -3.132   0.907   1.398  0.00  0.00    +0.000 C 
BRANCH  24  25
ATOM     25  C   UNL     1      -2.543   2.126   0.773  0.00  0.00    +0.000 A 
ATOM     26  C   UNL     1      -3.337   2.955  -0.020  0.00  0.00    +0.000 A 
ATOM     27  C   UNL     1      -1.199   2.437   0.980  0.00  0.00    +0.000 A 
ATOM     28  C   UNL     1      -2.786   4.096  -0.605  0.00  0.00    +0.000 A 
ATOM     29  C   UNL     1      -0.649   3.577   0.395  0.00  0.00    +0.000 A 
ATOM     30  C   UNL     1      -1.442   4.407  -0.397  0.00  0.00    +0.000 A 
ENDBRANCH  24  25
ENDBRANCH  17  24
ENDBRANCH   1  16
TORSDOF 9
