REMARK  Name = 163331
REMARK  10 active torsions:
REMARK  status: ('A' for Active; 'I' for Inactive)
REMARK    1  A    between atoms: O_2  and  C_22
REMARK    2  A    between atoms: O_2  and  C_23
REMARK    3  A    between atoms: C_7  and  C_18
REMARK    4  A    between atoms: C_8  and  C_19
REMARK    5  A    between atoms: C_23  and  C_24
REMARK    6  A    between atoms: C_24  and  C_25
REMARK    7  A    between atoms: C_25  and  C_26
REMARK    8  A    between atoms: C_26  and  C_27
REMARK    9  A    between atoms: C_27  and  C_28
REMARK   10  A    between atoms: C_28  and  C_29
REMARK                            x       y       z     vdW  Elec       q    Type
REMARK                         _______ _______ _______ _____ _____    ______ ____
ROOT
ATOM      1  O   UNL     1       7.415  -1.976   0.769  0.00  0.00    +0.000 OA
ATOM      2  C   UNL     1       2.477  -0.326   0.176  0.00  0.00    +0.000 C 
ATOM      3  C   UNL     1       3.528   0.729  -0.284  0.00  0.00    +0.000 C 
ATOM      4  C   UNL     1       4.892   0.366   0.306  0.00  0.00    +0.000 C 
ATOM      5  C   UNL     1       5.363  -1.032  -0.136  0.00  0.00    +0.000 C 
ATOM      6  C   UNL     1       1.051  -0.026  -0.438  0.00  0.00    +0.000 C 
ATOM      7  C   UNL     1       2.961  -1.791  -0.022  0.00  0.00    +0.000 C 
ATOM      8  C   UNL     1       4.398  -2.050   0.463  0.00  0.00    +0.000 C 
ATOM      9  C   UNL     1       6.093   1.268   0.041  0.00  0.00    +0.000 C 
ATOM     10  C   UNL     1       3.094   2.134   0.157  0.00  0.00    +0.000 C 
ATOM     11  C   UNL     1       0.717   1.469  -0.334  0.00  0.00    +0.000 C 
ATOM     12  C   UNL     1      -0.006  -0.844   0.363  0.00  0.00    +0.000 C 
ATOM     13  C   UNL     1       6.760  -0.990   0.456  0.00  0.00    +0.000 C 
ATOM     14  C   UNL     1       7.265   0.437   0.583  0.00  0.00    +0.000 C 
ATOM     15  C   UNL     1       1.639   2.406  -0.054  0.00  0.00    +0.000 C 
ATOM     16  C   UNL     1       5.532  -1.236  -1.652  0.00  0.00    +0.000 C 
ATOM     17  C   UNL     1       0.985  -0.427  -1.931  0.00  0.00    +0.000 C 
ATOM     18  C   UNL     1      -0.723   1.870  -0.554  0.00  0.00    +0.000 C 
ATOM     19  C   UNL     1      -1.455  -0.456   0.071  0.00  0.00    +0.000 C 
ATOM     20  C   UNL     1      -1.682   1.037   0.291  0.00  0.00    +0.000 C 
ENDROOT
BRANCH  20  21
ATOM     21  O   UNL     1      -3.016   1.373  -0.073  0.00  0.00    +0.000 OA
BRANCH  21  23
ATOM     22  O   UNL     1      -3.922   0.317   1.766  0.00  0.00    +0.000 OA
ATOM     23  C   UNL     1      -4.004   0.720   0.614  0.00  0.00    +0.000 C 
BRANCH  23  24
ATOM     24  C   UNL     1      -5.229   0.602  -0.266  0.00  0.00    +0.000 C 
BRANCH  24  25
ATOM     25  C   UNL     1      -6.423  -0.036   0.446  0.00  0.00    +0.000 C 
BRANCH  25  26
ATOM     26  C   UNL     1      -7.650  -0.155  -0.463  0.00  0.00    +0.000 C 
BRANCH  26  27
ATOM     27  C   UNL     1      -8.818  -0.821   0.267  0.00  0.00    +0.000 C 
BRANCH  27  28
ATOM     28  C   UNL     1     -10.034  -0.966  -0.647  0.00  0.00    +0.000 C 
ATOM     29  C   UNL     1     -11.208  -1.598   0.084  0.00  0.00    +0.000 C 
ENDBRANCH  27  28
ENDBRANCH  26  27
ENDBRANCH  25  26
ENDBRANCH  24  25
ENDBRANCH  23  24
ENDBRANCH  21  23
ENDBRANCH  20  21
TORSDOF 7
