REMARK  Name = 3342
REMARK  6 active torsions:
REMARK  status: ('A' for Active; 'I' for Inactive)
REMARK    1  A    between atoms: O_1  and  C_9
REMARK    2  A    between atoms: O_1  and  C_13
REMARK    3  A    between atoms: O_2  and  C_10
REMARK    4  A    between atoms: C_4  and  C_5
REMARK    5  A    between atoms: C_4  and  C_7
REMARK    6  A    between atoms: C_4  and  C_10
REMARK                            x       y       z     vdW  Elec       q    Type
REMARK                         _______ _______ _______ _____ _____    ______ ____
ROOT
ATOM      1  C   UNL     1      -1.956   0.547  -0.108  0.00  0.00    +0.000 A 
ATOM      2  C   UNL     1      -0.607   0.556  -0.464  0.00  0.00    +0.000 A 
ATOM      3  C   UNL     1      -2.524   1.665   0.502  0.00  0.00    +0.000 A 
ATOM      4  C   UNL     1       0.174   1.683  -0.210  0.00  0.00    +0.000 A 
ATOM      5  C   UNL     1      -1.743   2.793   0.756  0.00  0.00    +0.000 A 
ATOM      6  C   UNL     1      -0.395   2.802   0.400  0.00  0.00    +0.000 A 
ENDROOT
BRANCH   1   7
ATOM      7  C   UNL     1      -2.791  -0.659  -0.381  0.00  0.00    +0.000 C 
ATOM      8  C   UNL     1      -2.898  -1.020  -1.876  0.00  0.00    +0.000 C 
BRANCH   7  10
ATOM      9  O   UNL     1      -1.332  -1.921   1.117  0.00  0.00    +0.000 OA
ATOM     10  C   UNL     1      -2.308  -1.900   0.378  0.00  0.00    +0.000 C 
BRANCH  10  11
ATOM     11  O   UNL     1      -3.072  -2.999   0.144  0.00  0.00    +0.000 OA
ATOM     12  H   UNL     1      -2.744  -3.783   0.635  0.00  0.00    +0.000 HD
ENDBRANCH  10  11
ENDBRANCH   7  10
ENDBRANCH   1   7
BRANCH   4  13
ATOM     13  O   UNL     1       1.489   1.693  -0.557  0.00  0.00    +0.000 OA
BRANCH  13  14
ATOM     14  C   UNL     1       2.244   0.572  -0.253  0.00  0.00    +0.000 A 
ATOM     15  C   UNL     1       2.120  -0.003   0.999  0.00  0.00    +0.000 A 
ATOM     16  C   UNL     1       3.102   0.058  -1.208  0.00  0.00    +0.000 A 
ATOM     17  C   UNL     1       2.881  -1.131   1.306  0.00  0.00    +0.000 A 
ATOM     18  C   UNL     1       3.862  -1.070  -0.901  0.00  0.00    +0.000 A 
ATOM     19  C   UNL     1       3.752  -1.665   0.356  0.00  0.00    +0.000 A 
ENDBRANCH  13  14
ENDBRANCH   4  13
TORSDOF 5
