REMARK  Name = 119205
REMARK  10 active torsions:
REMARK  status: ('A' for Active; 'I' for Inactive)
REMARK    1  A    between atoms: O_3  and  C_19
REMARK    2  A    between atoms: O_3  and  C_25
REMARK    3  A    between atoms: O_4  and  C_20
REMARK    4  A    between atoms: O_4  and  C_26
REMARK    5  A    between atoms: O_5  and  C_23
REMARK    6  A    between atoms: O_6  and  C_24
REMARK    7  A    between atoms: C_7  and  C_10
REMARK    8  A    between atoms: C_8  and  C_11
REMARK    9  A    between atoms: C_10  and  C_13
REMARK   10  A    between atoms: C_11  and  C_14
REMARK                            x       y       z     vdW  Elec       q    Type
REMARK                         _______ _______ _______ _____ _____    ______ ____
ROOT
ATOM      1  O   UNL     1       3.950  -2.360   0.095  0.00  0.00    +0.000 OA
ATOM      2  O   UNL     1       4.488  -0.706  -1.397  0.00  0.00    +0.000 OA
ATOM      3  C   UNL     1       1.718  -1.785   0.527  0.00  0.00    +0.000 C 
ATOM      4  C   UNL     1       2.395  -0.607  -0.166  0.00  0.00    +0.000 C 
ATOM      5  C   UNL     1       2.898  -2.587   1.040  0.00  0.00    +0.000 C 
ATOM      6  C   UNL     1       3.716  -1.198  -0.587  0.00  0.00    +0.000 C 
ENDROOT
BRANCH   3   7
ATOM      7  C   UNL     1       0.886  -2.606  -0.462  0.00  0.00    +0.000 C 
BRANCH   7   8
ATOM      8  C   UNL     1      -0.491  -2.025  -0.657  0.00  0.00    +0.000 A 
ATOM      9  C   UNL     1      -1.528  -2.438   0.165  0.00  0.00    +0.000 A 
ATOM     10  C   UNL     1      -0.699  -1.086  -1.657  0.00  0.00    +0.000 A 
ATOM     11  C   UNL     1      -2.802  -1.901  -0.016  0.00  0.00    +0.000 A 
ATOM     12  C   UNL     1      -1.973  -0.549  -1.838  0.00  0.00    +0.000 A 
ATOM     13  C   UNL     1      -3.025  -0.956  -1.017  0.00  0.00    +0.000 A 
BRANCH  11  14
ATOM     14  O   UNL     1      -3.822  -2.308   0.791  0.00  0.00    +0.000 OA
ATOM     15  C   UNL     1      -3.511  -3.276   1.790  0.00  0.00    +0.000 C 
ENDBRANCH  11  14
BRANCH  13  16
ATOM     16  O   UNL     1      -4.265  -0.424  -1.204  0.00  0.00    +0.000 OA
ATOM     17  H   UNL     1      -4.868  -0.817  -0.550  0.00  0.00    +0.000 HD
ENDBRANCH  13  16
ENDBRANCH   7   8
ENDBRANCH   3   7
BRANCH   4  18
ATOM     18  C   UNL     1       2.632   0.575   0.764  0.00  0.00    +0.000 C 
BRANCH  18  19
ATOM     19  C   UNL     1       1.425   1.472   0.853  0.00  0.00    +0.000 A 
ATOM     20  C   UNL     1       1.294   2.528  -0.038  0.00  0.00    +0.000 A 
ATOM     21  C   UNL     1       0.464   1.230   1.823  0.00  0.00    +0.000 A 
ATOM     22  C   UNL     1       0.177   3.359   0.044  0.00  0.00    +0.000 A 
ATOM     23  C   UNL     1      -0.653   2.061   1.905  0.00  0.00    +0.000 A 
ATOM     24  C   UNL     1      -0.796   3.126   1.016  0.00  0.00    +0.000 A 
BRANCH  22  25
ATOM     25  O   UNL     1       0.049   4.396  -0.829  0.00  0.00    +0.000 OA
ATOM     26  C   UNL     1      -0.637   4.134  -2.052  0.00  0.00    +0.000 C 
ENDBRANCH  22  25
BRANCH  24  27
ATOM     27  O   UNL     1      -1.891   3.930   1.105  0.00  0.00    +0.000 OA
ATOM     28  H   UNL     1      -1.811   4.638   0.442  0.00  0.00    +0.000 HD
ENDBRANCH  24  27
ENDBRANCH  18  19
ENDBRANCH   4  18
TORSDOF 8
