REMARK  Name = 5282219
REMARK  17 active torsions:
REMARK  status: ('A' for Active; 'I' for Inactive)
REMARK    1  A    between atoms: O_1  and  C_9
REMARK    2  A    between atoms: O_1  and  C_15
REMARK    3  A    between atoms: O_2  and  C_8
REMARK    4  A    between atoms: O_2  and  C_26
REMARK    5  A    between atoms: O_3  and  C_18
REMARK    6  A    between atoms: O_3  and  C_25
REMARK    7  A    between atoms: O_5  and  C_33
REMARK    8  A    between atoms: C_7  and  C_13
REMARK    9  A    between atoms: C_13  and  C_16
REMARK   10  A    between atoms: C_14  and  C_17
REMARK   11  A    between atoms: C_15  and  C_23
REMARK   12  A    between atoms: C_24  and  C_29
REMARK   13  A    between atoms: C_24  and  C_30
REMARK   14  A    between atoms: C_25  and  C_27
REMARK   15  A    between atoms: C_26  and  C_33
REMARK   16  A    between atoms: C_28  and  C_31
REMARK   17  A    between atoms: C_28  and  C_32
REMARK                            x       y       z     vdW  Elec       q    Type
REMARK                         _______ _______ _______ _____ _____    ______ ____
ROOT
ATOM      1  C   UNL     1      -2.157   0.769  -1.593  0.00  0.00    +0.000 A 
ATOM      2  C   UNL     1      -2.943   1.145  -0.521  0.00  0.00    +0.000 A 
ATOM      3  C   UNL     1      -4.587  -0.488  -1.207  0.00  0.00    +0.000 A 
ATOM      4  C   UNL     1      -4.170   0.511  -0.326  0.00  0.00    +0.000 A 
ATOM      5  C   UNL     1      -2.550  -0.217  -2.478  0.00  0.00    +0.000 A 
ATOM      6  C   UNL     1      -3.777  -0.852  -2.283  0.00  0.00    +0.000 A 
ENDROOT
BRANCH   1   8
ATOM      7  O   UNL     1      -0.791   2.425  -2.541  0.00  0.00    +0.000 OA
ATOM      8  C   UNL     1      -0.851   1.434  -1.822  0.00  0.00    +0.000 C 
BRANCH   8   9
ATOM      9  C   UNL     1       0.352   0.834  -1.180  0.00  0.00    +0.000 C 
ATOM     10  C   UNL     1       1.574   1.378  -1.377  0.00  0.00    +0.000 C 
BRANCH  10  11
ATOM     11  C   UNL     1       2.817   0.872  -0.818  0.00  0.00    +0.000 A 
ATOM     12  C   UNL     1       5.195  -0.096   0.250  0.00  0.00    +0.000 A 
ATOM     13  C   UNL     1       4.036   1.228  -1.395  0.00  0.00    +0.000 A 
ATOM     14  C   UNL     1       2.791   0.030   0.294  0.00  0.00    +0.000 A 
ATOM     15  C   UNL     1       5.229   0.742  -0.859  0.00  0.00    +0.000 A 
ATOM     16  C   UNL     1       3.984  -0.455   0.830  0.00  0.00    +0.000 A 
BRANCH  12  17
ATOM     17  O   UNL     1       6.366  -0.574   0.776  0.00  0.00    +0.000 OA
BRANCH  17  18
ATOM     18  C   UNL     1       7.448  -0.757  -0.130  0.00  0.00    +0.000 C 
BRANCH  18  19
ATOM     19  C   UNL     1       8.298  -1.898   0.333  0.00  0.00    +0.000 C 
ATOM     20  C   UNL     1       9.612  -1.890   0.629  0.00  0.00    +0.000 C 
ATOM     21  C   UNL     1      10.298  -3.154   1.078  0.00  0.00    +0.000 C 
ATOM     22  C   UNL     1      10.514  -0.691   0.557  0.00  0.00    +0.000 C 
ENDBRANCH  18  19
ENDBRANCH  17  18
ENDBRANCH  12  17
ENDBRANCH  10  11
ENDBRANCH   8   9
ENDBRANCH   1   8
BRANCH   3  23
ATOM     23  O   UNL     1      -5.784  -1.108  -1.015  0.00  0.00    +0.000 OA
BRANCH  23  24
ATOM     24  C   UNL     1      -6.249  -1.220   0.329  0.00  0.00    +0.000 C 
BRANCH  24  25
ATOM     25  C   UNL     1      -7.059  -2.470   0.474  0.00  0.00    +0.000 C 
ATOM     26  C   UNL     1      -8.337  -2.590   0.879  0.00  0.00    +0.000 C 
ATOM     27  C   UNL     1      -9.237  -1.454   1.276  0.00  0.00    +0.000 C 
ATOM     28  C   UNL     1      -8.983  -3.948   0.966  0.00  0.00    +0.000 C 
ENDBRANCH  24  25
ENDBRANCH  23  24
ENDBRANCH   3  23
BRANCH   2  29
ATOM     29  O   UNL     1      -2.555   2.120   0.348  0.00  0.00    +0.000 OA
BRANCH  29  30
ATOM     30  C   UNL     1      -3.020   2.012   1.692  0.00  0.00    +0.000 C 
BRANCH  30  32
ATOM     31  O   UNL     1      -0.962   3.149   2.304  0.00  0.00    +0.000 OA
ATOM     32  C   UNL     1      -2.025   2.641   2.627  0.00  0.00    +0.000 C 
BRANCH  32  33
ATOM     33  O   UNL     1      -2.474   2.570   3.905  0.00  0.00    +0.000 OA
ATOM     34  H   UNL     1      -1.843   2.975   4.538  0.00  0.00    +0.000 HD
ENDBRANCH  32  33
ENDBRANCH  30  32
ENDBRANCH  29  30
ENDBRANCH   2  29
TORSDOF 13
