REMARK  Name = 11149906
REMARK  8 active torsions:
REMARK  status: ('A' for Active; 'I' for Inactive)
REMARK    1  A    between atoms: O_1  and  C_4
REMARK    2  A    between atoms: O_1  and  C_7
REMARK    3  A    between atoms: O_2  and  C_10
REMARK    4  A    between atoms: C_4  and  C_5
REMARK    5  A    between atoms: C_4  and  C_10
REMARK    6  A    between atoms: C_5  and  C_6
REMARK    7  A    between atoms: C_8  and  C_9
REMARK    8  A    between atoms: C_9  and  C_19
REMARK                            x       y       z     vdW  Elec       q    Type
REMARK                         _______ _______ _______ _____ _____    ______ ____
ROOT
ATOM      1  C   UNL     1       1.332   1.415   0.091  0.00  0.00    +0.000 C 
ENDROOT
BRANCH   1   3
ATOM      2  O   UNL     1       1.332   3.800  -0.385  0.00  0.00    +0.000 OA
ATOM      3  C   UNL     1       1.724   2.864   0.299  0.00  0.00    +0.000 C 
BRANCH   3   4
ATOM      4  O   UNL     1       2.561   3.021   1.357  0.00  0.00    +0.000 OA
ATOM      5  H   UNL     1       2.806   3.961   1.494  0.00  0.00    +0.000 HD
ENDBRANCH   3   4
ENDBRANCH   1   3
BRANCH   1   6
ATOM      6  O   UNL     1       0.389   1.375  -0.973  0.00  0.00    +0.000 OA
BRANCH   6   7
ATOM      7  C   UNL     1      -0.864   0.911  -0.669  0.00  0.00    +0.000 A 
ATOM      8  C   UNL     1      -3.408  -0.028  -0.052  0.00  0.00    +0.000 A 
ATOM      9  C   UNL     1      -1.627   1.569   0.290  0.00  0.00    +0.000 A 
ATOM     10  C   UNL     1      -1.361  -0.211  -1.322  0.00  0.00    +0.000 A 
ATOM     11  C   UNL     1      -2.903   1.097   0.600  0.00  0.00    +0.000 A 
ATOM     12  C   UNL     1      -2.637  -0.682  -1.013  0.00  0.00    +0.000 A 
BRANCH   8  13
ATOM     13  C   UNL     1      -4.772  -0.531   0.279  0.00  0.00    +0.000 C 
ATOM     14  C   UNL     1      -4.755  -1.555   1.411  0.00  0.00    +0.000 C 
ENDBRANCH   8  13
ENDBRANCH   6   7
ENDBRANCH   1   6
BRANCH   1  15
ATOM     15  C   UNL     1       2.546   0.557  -0.300  0.00  0.00    +0.000 C 
BRANCH  15  16
ATOM     16  C   UNL     1       2.302  -0.902  -0.112  0.00  0.00    +0.000 A 
ATOM     17  C   UNL     1       2.606  -1.509   1.107  0.00  0.00    +0.000 A 
ATOM     18  C   UNL     1       1.770  -1.661  -1.155  0.00  0.00    +0.000 A 
ATOM     19  C   UNL     1       2.378  -2.873   1.283  0.00  0.00    +0.000 A 
ATOM     20  C   UNL     1       1.542  -3.026  -0.978  0.00  0.00    +0.000 A 
ATOM     21  C   UNL     1       1.846  -3.632   0.241  0.00  0.00    +0.000 A 
ENDBRANCH  15  16
ENDBRANCH   1  15
TORSDOF 7
