REMARK  Name = 3037
REMARK  4 active torsions:
REMARK  status: ('A' for Active; 'I' for Inactive)
REMARK    1  A    between atoms: O_3  and  C_8
REMARK    2  A    between atoms: O_4  and  C_9
REMARK    3  A    between atoms: C_5  and  C_6
REMARK    4  A    between atoms: C_5  and  C_7
REMARK                            x       y       z     vdW  Elec       q    Type
REMARK                         _______ _______ _______ _____ _____    ______ ____
ROOT
ATOM      1  C   UNL     1      -0.001  -0.000   1.474  0.00  0.00    +0.000 C 
ENDROOT
BRANCH   1   3
ATOM      2 CL   UNL     1      -4.855   1.340   0.212  0.00  0.00    +0.000 Cl
ATOM      3  C   UNL     1      -1.222  -0.274   0.660  0.00  0.00    +0.000 A 
ATOM      4  C   UNL     1      -1.259  -1.346  -0.232  0.00  0.00    +0.000 A 
ATOM      5  C   UNL     1      -2.334   0.557   0.797  0.00  0.00    +0.000 A 
ATOM      6  C   UNL     1      -2.407  -1.588  -0.986  0.00  0.00    +0.000 A 
ATOM      7  C   UNL     1      -3.483   0.315   0.043  0.00  0.00    +0.000 A 
ATOM      8  C   UNL     1      -3.519  -0.757  -0.848  0.00  0.00    +0.000 A 
BRANCH   4   9
ATOM      9  O   UNL     1      -0.181  -2.167  -0.379  0.00  0.00    +0.000 OA
ATOM     10  H   UNL     1       0.296  -2.226   0.464  0.00  0.00    +0.000 HD
ENDBRANCH   4   9
ENDBRANCH   1   3
BRANCH   1  12
ATOM     11 CL   UNL     1       4.853  -1.341   0.212  0.00  0.00    +0.000 Cl
ATOM     12  C   UNL     1       1.238   0.277   0.648  0.00  0.00    +0.000 A 
ATOM     13  C   UNL     1       1.256   1.346  -0.231  0.00  0.00    +0.000 A 
ATOM     14  C   UNL     1       2.332  -0.557   0.797  0.00  0.00    +0.000 A 
ATOM     15  C   UNL     1       2.405   1.587  -0.985  0.00  0.00    +0.000 A 
ATOM     16  C   UNL     1       3.481  -0.316   0.043  0.00  0.00    +0.000 A 
ATOM     17  C   UNL     1       3.517   0.757  -0.848  0.00  0.00    +0.000 A 
BRANCH  13  18
ATOM     18  O   UNL     1       0.179   2.166  -0.379  0.00  0.00    +0.000 OA
ATOM     19  H   UNL     1       0.387   2.849  -1.040  0.00  0.00    +0.000 HD
ENDBRANCH  13  18
ENDBRANCH   1  12
TORSDOF 4
