REMARK  Name = 57112
REMARK  13 active torsions:
REMARK  status: ('A' for Active; 'I' for Inactive)
REMARK    1  A    between atoms: O_1  and  C_15
REMARK    2  A    between atoms: O_2  and  C_18
REMARK    3  A    between atoms: O_2  and  C_19
REMARK    4  A    between atoms: O_3  and  C_25
REMARK    5  A    between atoms: C_5  and  C_6
REMARK    6  A    between atoms: C_5  and  C_9
REMARK    7  A    between atoms: C_5  and  C_10
REMARK    8  A    between atoms: C_5  and  C_11
REMARK    9  A    between atoms: C_7  and  C_8
REMARK   10  A    between atoms: C_7  and  C_12
REMARK   11  A    between atoms: C_8  and  C_15
REMARK   12  A    between atoms: C_15  and  C_18
REMARK   13  A    between atoms: C_24  and  C_25
REMARK                            x       y       z     vdW  Elec       q    Type
REMARK                         _______ _______ _______ _____ _____    ______ ____
ROOT
ATOM      1  C   UNL     1      -0.489  -1.604  -0.125  0.00  0.00    +0.000 C 
ENDROOT
BRANCH   1   2
ATOM      2  O   UNL     1      -0.403  -2.867   0.534  0.00  0.00    +0.000 OA
ATOM      3  H   UNL     1      -0.215  -2.703   1.474  0.00  0.00    +0.000 HD
ENDBRANCH   1   2
BRANCH   1   4
ATOM      4  C   UNL     1       0.845  -0.866   0.040  0.00  0.00    +0.000 C 
BRANCH   4   5
ATOM      5  C   UNL     1       2.057  -1.635  -0.506  0.00  0.00    +0.000 C 
BRANCH   5   7
ATOM      6  C   UNL     1       5.766   0.458  -0.065  0.00  0.00    +0.000 A 
ATOM      7  C   UNL     1       3.364  -0.898  -0.351  0.00  0.00    +0.000 A 
ATOM      8  C   UNL     1       5.000   0.631  -1.218  0.00  0.00    +0.000 A 
ATOM      9  C   UNL     1       5.323  -0.398   0.944  0.00  0.00    +0.000 A 
ATOM     10  C   UNL     1       3.792  -0.051  -1.362  0.00  0.00    +0.000 A 
ATOM     11  C   UNL     1       4.115  -1.080   0.800  0.00  0.00    +0.000 A 
BRANCH   6  12
ATOM     12  C   UNL     1       7.058   1.186   0.089  0.00  0.00    +0.000 C 
ATOM     13  C   UNL     1       8.056   0.816  -1.051  0.00  0.00    +0.000 C 
ATOM     14  C   UNL     1       7.829   0.912   1.423  0.00  0.00    +0.000 C 
ATOM     15  C   UNL     1       6.845   2.731   0.043  0.00  0.00    +0.000 C 
ENDBRANCH   6  12
ENDBRANCH   5   7
ENDBRANCH   4   5
ENDBRANCH   1   4
BRANCH   1  16
ATOM     16  C   UNL     1      -1.636  -0.808   0.491  0.00  0.00    +0.000 C 
BRANCH  16  17
ATOM     17  O   UNL     1      -2.852  -1.521   0.291  0.00  0.00    +0.000 OA
BRANCH  17  18
ATOM     18  C   UNL     1      -3.995  -0.774   0.193  0.00  0.00    +0.000 A 
ATOM     19  C   UNL     1      -4.087   0.438   0.869  0.00  0.00    +0.000 A 
ATOM     20  C   UNL     1      -5.055  -1.235  -0.580  0.00  0.00    +0.000 A 
ATOM     21  C   UNL     1      -5.252   1.198   0.771  0.00  0.00    +0.000 A 
ATOM     22  C   UNL     1      -6.221  -0.475  -0.678  0.00  0.00    +0.000 A 
ATOM     23  C   UNL     1      -6.319   0.741  -0.003  0.00  0.00    +0.000 A 
BRANCH  23  25
ATOM     24  O   UNL     1      -7.729   2.620   0.451  0.00  0.00    +0.000 OA
ATOM     25  C   UNL     1      -7.535   1.534  -0.104  0.00  0.00    +0.000 C 
BRANCH  25  26
ATOM     26  O   UNL     1      -8.474   0.947  -0.896  0.00  0.00    +0.000 OA
ATOM     27  H   UNL     1      -9.289   1.490  -0.958  0.00  0.00    +0.000 HD
ENDBRANCH  25  26
ENDBRANCH  23  25
ENDBRANCH  17  18
ENDBRANCH  16  17
ENDBRANCH   1  16
TORSDOF 10
