REMARK  Name = 7184
REMARK  7 active torsions:
REMARK  status: ('A' for Active; 'I' for Inactive)
REMARK    1  A    between atoms: O_1  and  C_6
REMARK    2  A    between atoms: O_1  and  C_9
REMARK    3  A    between atoms: O_3  and  C_14
REMARK    4  A    between atoms: C_4  and  C_5
REMARK    5  A    between atoms: C_4  and  C_6
REMARK    6  A    between atoms: C_5  and  C_7
REMARK    7  A    between atoms: C_8  and  C_9
REMARK                            x       y       z     vdW  Elec       q    Type
REMARK                         _______ _______ _______ _____ _____    ______ ____
ROOT
ATOM      1  C   UNL     1      -1.093   0.451  -0.081  0.00  0.00    +0.000 A 
ATOM      2  C   UNL     1      -2.137   1.210   0.408  0.00  0.00    +0.000 A 
ATOM      3  C   UNL     1      -1.263  -0.856  -0.490  0.00  0.00    +0.000 A 
ATOM      4  C   UNL     1      -3.406   0.636   0.493  0.00  0.00    +0.000 A 
ATOM      5  C   UNL     1      -2.532  -1.430  -0.405  0.00  0.00    +0.000 A 
ATOM      6  C   UNL     1      -3.603  -0.684   0.086  0.00  0.00    +0.000 A 
ENDROOT
BRANCH   1   8
ATOM      7  O   UNL     1       0.440   2.256  -0.357  0.00  0.00    +0.000 OA
ATOM      8  C   UNL     1       0.257   1.063  -0.171  0.00  0.00    +0.000 C 
BRANCH   8   9
ATOM      9  O   UNL     1       1.226   0.119  -0.019  0.00  0.00    +0.000 OA
BRANCH   9  10
ATOM     10  C   UNL     1       2.567   0.584  -0.086  0.00  0.00    +0.000 C 
BRANCH  10  11
ATOM     11  C   UNL     1       3.508  -0.598   0.103  0.00  0.00    +0.000 C 
BRANCH  11  12
ATOM     12  C   UNL     1       4.971  -0.166   0.060  0.00  0.00    +0.000 C 
ATOM     13  C   UNL     1       5.906  -1.342   0.292  0.00  0.00    +0.000 C 
ENDBRANCH  11  12
ENDBRANCH  10  11
ENDBRANCH   9  10
ENDBRANCH   8   9
ENDBRANCH   1   8
BRANCH   6  14
ATOM     14  O   UNL     1      -4.841  -1.243   0.167  0.00  0.00    +0.000 OA
ATOM     15  H   UNL     1      -4.795  -2.159  -0.156  0.00  0.00    +0.000 HD
ENDBRANCH   6  14
TORSDOF 6
