REMARK  Name = 184820
REMARK  13 active torsions:
REMARK  status: ('A' for Active; 'I' for Inactive)
REMARK    1  A    between atoms: O_1  and  C_7
REMARK    2  A    between atoms: O_1  and  C_13
REMARK    3  A    between atoms: O_2  and  C_5
REMARK    4  A    between atoms: N_4  and  C_6
REMARK    5  A    between atoms: N_4  and  C_8
REMARK    6  A    between atoms: C_5  and  C_6
REMARK    7  A    between atoms: C_5  and  C_7
REMARK    8  A    between atoms: C_8  and  C_11
REMARK    9  A    between atoms: C_9  and  C_10
REMARK   10  A    between atoms: C_9  and  C_14
REMARK   11  A    between atoms: C_10  and  C_15
REMARK   12  A    between atoms: C_11  and  C_18
REMARK   13  A    between atoms: C_12  and  C_14
REMARK                            x       y       z     vdW  Elec       q    Type
REMARK                         _______ _______ _______ _____ _____    ______ ____
ROOT
ATOM      1  C   UNL     1       1.379   1.911   0.290  0.00  0.00    +0.000 A 
ATOM      2  C   UNL     1       2.659   1.423   0.028  0.00  0.00    +0.000 A 
ATOM      3  C   UNL     1       1.069   3.241   0.011  0.00  0.00    +0.000 A 
ATOM      4  C   UNL     1       3.629   2.266  -0.514  0.00  0.00    +0.000 A 
ATOM      5  C   UNL     1       2.039   4.085  -0.532  0.00  0.00    +0.000 A 
ATOM      6  C   UNL     1       3.319   3.597  -0.794  0.00  0.00    +0.000 A 
ENDROOT
BRANCH   1   8
ATOM      7  O   UNL     1       0.659   0.103   1.611  0.00  0.00    +0.000 OA
ATOM      8  C   UNL     1       0.352   1.048   0.857  0.00  0.00    +0.000 C 
BRANCH   8   9
ATOM      9  C   UNL     1      -1.130   1.300   0.527  0.00  0.00    +0.000 C 
BRANCH   9  10
ATOM     10  C   UNL     1      -1.973   0.023   0.509  0.00  0.00    +0.000 C 
BRANCH  10  11
ATOM     11  C   UNL     1      -3.413   0.311   0.173  0.00  0.00    +0.000 A 
ATOM     12  C   UNL     1      -4.325   0.589   1.192  0.00  0.00    +0.000 A 
ATOM     13  C   UNL     1      -3.836   0.299  -1.157  0.00  0.00    +0.000 A 
ATOM     14  C   UNL     1      -5.658   0.856   0.881  0.00  0.00    +0.000 A 
ATOM     15  C   UNL     1      -5.169   0.566  -1.467  0.00  0.00    +0.000 A 
ATOM     16  C   UNL     1      -6.080   0.845  -0.448  0.00  0.00    +0.000 A 
ENDBRANCH  10  11
ENDBRANCH   9  10
ENDBRANCH   8   9
ENDBRANCH   1   8
BRANCH   2  17
ATOM     17  O   UNL     1       2.984   0.120   0.297  0.00  0.00    +0.000 OA
BRANCH  17  18
ATOM     18  C   UNL     1       3.409  -0.674  -0.806  0.00  0.00    +0.000 C 
BRANCH  18  19
ATOM     19  C   UNL     1       3.739  -2.079  -0.304  0.00  0.00    +0.000 C 
BRANCH  19  20
ATOM     20  O   UNL     1       4.811  -1.988   0.639  0.00  0.00    +0.000 OA
ATOM     21  H   UNL     1       5.045  -2.893   0.905  0.00  0.00    +0.000 HD
ENDBRANCH  19  20
BRANCH  19  22
ATOM     22  C   UNL     1       2.558  -2.770   0.381  0.00  0.00    +0.000 C 
BRANCH  22  23
ATOM     23  N   UNL     1       1.435  -2.963  -0.527  0.00  0.00    +0.000 NA
ATOM     24  H   UNL     1       1.741  -3.486  -1.347  0.00  0.00    +0.000 HD
BRANCH  23  25
ATOM     25  C   UNL     1       0.348  -3.672   0.134  0.00  0.00    +0.000 C 
BRANCH  25  26
ATOM     26  C   UNL     1      -0.824  -3.857  -0.827  0.00  0.00    +0.000 C 
ATOM     27  C   UNL     1      -1.983  -4.578  -0.154  0.00  0.00    +0.000 C 
ENDBRANCH  25  26
ENDBRANCH  23  25
ENDBRANCH  22  23
ENDBRANCH  19  22
ENDBRANCH  18  19
ENDBRANCH  17  18
ENDBRANCH   2  17
TORSDOF 12
