REMARK  Name = 25202592
REMARK  5 active torsions:
REMARK  status: ('A' for Active; 'I' for Inactive)
REMARK    1  A    between atoms: N_3  and  C_4
REMARK    2  A    between atoms: C_4  and  C_5
REMARK    3  A    between atoms: C_4  and  C_7
REMARK    4  A    between atoms: C_5  and  C_6
REMARK    5  A    between atoms: C_6  and  C_8
REMARK                            x       y       z     vdW  Elec       q    Type
REMARK                         _______ _______ _______ _____ _____    ______ ____
ROOT
ATOM      1  C   UNL     1      -1.236   0.407  -0.203  0.00  0.00    +0.000 C 
ENDROOT
BRANCH   1   2
ATOM      2  N   UNL     1      -2.384   1.328  -0.483  0.00  0.00    +0.000 N 
ATOM      3  H   UNL     1      -3.039   0.914  -1.159  0.00  0.00    +0.000 HD
ATOM      4  H   UNL     1      -2.061   2.220  -0.882  0.00  0.00    +0.000 HD
ATOM      5  H   UNL     1      -2.917   1.545   0.370  0.00  0.00    +0.000 HD
ENDBRANCH   1   2
BRANCH   1   6
ATOM      6  C   UNL     1      -1.722  -0.913   0.328  0.00  0.00    +0.000 C 
ATOM      7  C   UNL     1      -1.563  -2.078  -0.312  0.00  0.00    +0.000 C 
ENDBRANCH   1   6
BRANCH   1   8
ATOM      8  C   UNL     1      -0.294   1.133   0.774  0.00  0.00    +0.000 C 
BRANCH   8   9
ATOM      9  C   UNL     1       0.991   0.366   1.090  0.00  0.00    +0.000 C 
BRANCH   9  12
ATOM     10  O   UNL     1       2.523  -1.063   0.013  0.00  0.00    +0.000 OA
ATOM     11  O   UNL     1       1.827   0.815  -1.087  0.00  0.00    +0.000 OA
ATOM     12  C   UNL     1       1.860   0.006  -0.119  0.00  0.00    +0.000 C 
ENDBRANCH   9  12
ENDBRANCH   8   9
ENDBRANCH   1   8
TORSDOF 5
