REMARK  Name = 10125830
REMARK  5 active torsions:
REMARK  status: ('A' for Active; 'I' for Inactive)
REMARK    1  A    between atoms: O_2  and  C_19
REMARK    2  A    between atoms: O_2  and  C_25
REMARK    3  A    between atoms: O_3  and  C_22
REMARK    4  A    between atoms: C_9  and  C_14
REMARK    5  A    between atoms: C_15  and  C_16
REMARK                            x       y       z     vdW  Elec       q    Type
REMARK                         _______ _______ _______ _____ _____    ______ ____
ROOT
ATOM      1  O   UNL     1      -3.765   2.033  -0.297  0.00  0.00    +0.000 OA
ATOM      2  N   UNL     1      -1.419   1.753  -0.318  0.00  0.00    +0.000 N 
ATOM      3  C   UNL     1      -1.276  -0.502   0.107  0.00  0.00    +0.000 A 
ATOM      4  C   UNL     1      -0.553   0.669  -0.138  0.00  0.00    +0.000 A 
ATOM      5  C   UNL     1      -2.682  -0.114   0.077  0.00  0.00    +0.000 C 
ATOM      6  C   UNL     1       1.493  -0.520   0.024  0.00  0.00    +0.000 A 
ATOM      7  C   UNL     1       0.827   0.690  -0.186  0.00  0.00    +0.000 A 
ATOM      8  C   UNL     1      -0.624  -1.703   0.316  0.00  0.00    +0.000 A 
ATOM      9  C   UNL     1      -2.756   1.359  -0.202  0.00  0.00    +0.000 C 
ATOM     10  C   UNL     1       0.774  -1.705   0.272  0.00  0.00    +0.000 A 
ATOM     11  C   UNL     1      -3.760  -0.881   0.253  0.00  0.00    +0.000 C 
ATOM     12  H   UNL     1      -1.102   2.697  -0.508  0.00  0.00    +0.000 HD
ENDROOT
BRANCH  11  14
ATOM     13  N   UNL     1      -5.769  -0.542  -0.979  0.00  0.00    +0.000 N 
ATOM     14  C   UNL     1      -5.148  -0.485   0.220  0.00  0.00    +0.000 A 
ATOM     15  C   UNL     1      -5.997  -0.052   1.175  0.00  0.00    +0.000 A 
ATOM     16  C   UNL     1      -7.066  -0.134  -0.805  0.00  0.00    +0.000 A 
ATOM     17  C   UNL     1      -7.235   0.178   0.525  0.00  0.00    +0.000 A 
ATOM     18  H   UNL     1      -5.362  -0.832  -1.859  0.00  0.00    +0.000 HD
ENDBRANCH  11  14
BRANCH   6  19
ATOM     19  C   UNL     1       2.939  -0.558  -0.014  0.00  0.00    +0.000 A 
ATOM     20  C   UNL     1       3.675   0.564   0.365  0.00  0.00    +0.000 A 
ATOM     21  C   UNL     1       3.595  -1.716  -0.429  0.00  0.00    +0.000 A 
ATOM     22  C   UNL     1       5.069   0.528   0.329  0.00  0.00    +0.000 A 
ATOM     23  C   UNL     1       4.989  -1.753  -0.464  0.00  0.00    +0.000 A 
ATOM     24  C   UNL     1       5.726  -0.631  -0.085  0.00  0.00    +0.000 A 
BRANCH  22  25
ATOM     25  O   UNL     1       5.778   1.630   0.701  0.00  0.00    +0.000 OA
ATOM     26  C   UNL     1       6.096   2.572  -0.321  0.00  0.00    +0.000 C 
ENDBRANCH  22  25
BRANCH  24  27
ATOM     27  O   UNL     1       7.087  -0.679  -0.124  0.00  0.00    +0.000 OA
ATOM     28  H   UNL     1       7.364  -1.558  -0.436  0.00  0.00    +0.000 HD
ENDBRANCH  24  27
ENDBRANCH   6  19
TORSDOF 4
