REMARK  Name = 656910
REMARK  12 active torsions:
REMARK  status: ('A' for Active; 'I' for Inactive)
REMARK    1  A    between atoms: N_5  and  C_15
REMARK    2  A    between atoms: N_6  and  C_13
REMARK    3  A    between atoms: N_7  and  C_20
REMARK    4  A    between atoms: N_8  and  C_19
REMARK    5  A    between atoms: N_10  and  N_12
REMARK    6  A    between atoms: C_13  and  C_14
REMARK    7  A    between atoms: C_13  and  C_18
REMARK    8  A    between atoms: C_14  and  C_16
REMARK    9  A    between atoms: C_15  and  C_17
REMARK   10  A    between atoms: C_15  and  C_21
REMARK   11  A    between atoms: C_16  and  C_19
REMARK   12  A    between atoms: C_17  and  C_20
REMARK                            x       y       z     vdW  Elec       q    Type
REMARK                         _______ _______ _______ _____ _____    ______ ____
ROOT
ATOM      1  C   UNL     1      -0.517  -1.355  -0.232  0.00  0.00    +0.000 C 
ENDROOT
BRANCH   1   4
ATOM      2  O   UNL     1      -1.850  -0.515  -2.073  0.00  0.00    +0.000 OA
ATOM      3  N   UNL     1      -2.567  -0.103   0.093  0.00  0.00    +0.000 N 
ATOM      4  C   UNL     1      -1.695  -0.614  -0.857  0.00  0.00    +0.000 C 
ATOM      5  H   UNL     1      -2.378  -0.248   1.081  0.00  0.00    +0.000 HD
BRANCH   3   6
ATOM      6  C   UNL     1      -3.767   0.610  -0.274  0.00  0.00    +0.000 C 
BRANCH   6   9
ATOM      7  O   UNL     1      -3.360   1.841   1.781  0.00  0.00    +0.000 OA
ATOM      8  N   UNL     1      -5.065   2.535   0.409  0.00  0.00    +0.000 N 
ATOM      9  C   UNL     1      -4.026   1.700   0.758  0.00  0.00    +0.000 C 
ATOM     10  H   UNL     1      -5.586   2.430  -0.456  0.00  0.00    +0.000 HD
ATOM     11  H   UNL     1      -5.335   3.307   1.010  0.00  0.00    +0.000 HD
ENDBRANCH   6   9
BRANCH   6  12
ATOM     12  C   UNL     1      -4.963  -0.333  -0.459  0.00  0.00    +0.000 C 
BRANCH  12  13
ATOM     13  C   UNL     1      -5.407  -1.034   0.828  0.00  0.00    +0.000 C 
BRANCH  13  14
ATOM     14  N   UNL     1      -6.536  -1.917   0.555  0.00  0.00    +0.000 NA
ATOM     15  H   UNL     1      -6.259  -2.629  -0.120  0.00  0.00    +0.000 HD
ATOM     16  H   UNL     1      -6.789  -2.416   1.407  0.00  0.00    +0.000 HD
ENDBRANCH  13  14
ENDBRANCH  12  13
ENDBRANCH   6  12
ENDBRANCH   3   6
ENDBRANCH   1   4
BRANCH   1  17
ATOM     17  N   UNL     1      -0.655  -2.748  -0.661  0.00  0.00    +0.000 NA
ATOM     18  H   UNL     1      -1.565  -3.111  -0.381  0.00  0.00    +0.000 HD
ATOM     19  H   UNL     1      -0.615  -2.809  -1.678  0.00  0.00    +0.000 HD
ENDBRANCH   1  17
BRANCH   1  20
ATOM     20  C   UNL     1       0.838  -0.793  -0.685  0.00  0.00    +0.000 C 
BRANCH  20  21
ATOM     21  C   UNL     1       0.996   0.691  -0.324  0.00  0.00    +0.000 C 
BRANCH  21  22
ATOM     22  C   UNL     1       2.331   1.264  -0.786  0.00  0.00    +0.000 C 
BRANCH  22  23
ATOM     23  N   UNL     1       3.433   0.546  -0.143  0.00  0.00    +0.000 NA
ATOM     24  N   UNL     1       5.799   0.336   0.096  0.00  0.00    +0.000 N 
ATOM     25  N   UNL     1       4.988   1.936  -1.298  0.00  0.00    +0.000 N 
ATOM     26  C   UNL     1       4.642   0.915  -0.430  0.00  0.00    +0.000 C 
ATOM     27  H   UNL     1       6.681   0.731  -0.221  0.00  0.00    +0.000 HD
ATOM     28  H   UNL     1       5.959   2.170  -1.474  0.00  0.00    +0.000 HD
ATOM     29  H   UNL     1       4.294   2.489  -1.788  0.00  0.00    +0.000 HD
BRANCH  24  32
ATOM     30  O   UNL     1       6.900  -1.086   1.348  0.00  0.00    +0.000 OA
ATOM     31  O   UNL     1       4.701  -1.171   1.364  0.00  0.00    +0.000 OA
ATOM     32  N   UNL     1       5.781  -0.704   0.990  0.00  0.00    +0.000 N 
ENDBRANCH  24  32
ENDBRANCH  22  23
ENDBRANCH  21  22
ENDBRANCH  20  21
ENDBRANCH   1  20
TORSDOF 12
