REMARK  Name = 152441
REMARK  9 active torsions:
REMARK  status: ('A' for Active; 'I' for Inactive)
REMARK    1  A    between atoms: P_1  and  O_2
REMARK    2  A    between atoms: P_1  and  O_6
REMARK    3  A    between atoms: P_1  and  O_7
REMARK    4  A    between atoms: O_2  and  C_12
REMARK    5  A    between atoms: O_3  and  C_13
REMARK    6  A    between atoms: N_9  and  C_10
REMARK    7  A    between atoms: C_10  and  C_11
REMARK    8  A    between atoms: C_10  and  C_13
REMARK    9  A    between atoms: C_11  and  C_12
REMARK                            x       y       z     vdW  Elec       q    Type
REMARK                         _______ _______ _______ _____ _____    ______ ____
ROOT
ATOM      1  C   UNK     1      -1.115   1.442  -0.071  0.00  0.00    +0.000 C 
ENDROOT
BRANCH   1   3
ATOM      2  O   UNK     1       0.495   1.079   1.695  0.00  0.00    +0.000 OA
ATOM      3  C   UNK     1       0.196   0.980   0.513  0.00  0.00    +0.000 C 
BRANCH   3   4
ATOM      4  O   UNK     1       0.983   0.437  -0.452  0.00  0.00    +0.000 OA
BRANCH   4   5
ATOM      5  P   UNK     1       2.463  -0.172  -0.228  0.00  0.00    +0.000 P 
ATOM      6  O   UNK     1       3.453   0.822   0.308  0.00  0.00    +0.000 OA
BRANCH   5   7
ATOM      7  O   UNK     1       2.864  -0.800  -1.664  0.00  0.00    +0.000 OA
ATOM      8  H   UNK     1       2.265  -1.458  -2.077  0.00  0.00    +0.000 HD
ENDBRANCH   5   7
BRANCH   5   9
ATOM      9  O   UNK     1       2.252  -1.466   0.717  0.00  0.00    +0.000 OA
ATOM     10  H   UNK     1       3.040  -1.905   1.103  0.00  0.00    +0.000 HD
ENDBRANCH   5   9
ENDBRANCH   4   5
ENDBRANCH   3   4
ENDBRANCH   1   3
BRANCH   1  11
ATOM     11  C   UNK     1      -1.847   0.306  -0.786  0.00  0.00    +0.000 C 
BRANCH  11  12
ATOM     12  N   UNK     1      -3.114   0.793  -1.339  0.00  0.00    +0.000 NA
ATOM     13  H   UNK     1      -2.925   1.534  -2.013  0.00  0.00    +0.000 HD
ATOM     14  H   UNK     1      -3.670   1.226  -0.601  0.00  0.00    +0.000 HD
ENDBRANCH  11  12
BRANCH  11  16
ATOM     15  O   UNK     1      -3.197  -0.845   0.892  0.00  0.00    +0.000 OA
ATOM     16  C   UNK     1      -2.195  -0.806   0.190  0.00  0.00    +0.000 C 
BRANCH  16  17
ATOM     17  O   UNK     1      -1.239  -1.771   0.224  0.00  0.00    +0.000 OA
ATOM     18  H   UNK     1      -1.459  -2.482   0.863  0.00  0.00    +0.000 HD
ENDBRANCH  16  17
ENDBRANCH  11  16
ENDBRANCH   1  11
TORSDOF 9
