REMARK  Name = 444182
REMARK  13 active torsions:
REMARK  status: ('A' for Active; 'I' for Inactive)
REMARK    1  A    between atoms: P_1  and  O_2
REMARK    2  A    between atoms: P_1  and  O_3
REMARK    3  A    between atoms: P_1  and  O_5
REMARK    4  A    between atoms: O_2  and  C_12
REMARK    5  A    between atoms: O_3  and  C_14
REMARK    6  A    between atoms: O_4  and  C_11
REMARK    7  A    between atoms: O_6  and  C_15
REMARK    8  A    between atoms: O_8  and  C_16
REMARK    9  A    between atoms: N_10  and  C_13
REMARK   10  A    between atoms: C_11  and  C_12
REMARK   11  A    between atoms: C_11  and  C_15
REMARK   12  A    between atoms: C_13  and  C_14
REMARK   13  A    between atoms: C_13  and  C_16
REMARK                            x       y       z     vdW  Elec       q    Type
REMARK                         _______ _______ _______ _____ _____    ______ ____
ROOT
ATOM      1  P   UNK     1      -0.044  -2.119   0.238  0.00  0.00    +0.000 P 
ATOM      2  O   UNK     1       0.275  -2.806   1.535  0.00  0.00    +0.000 OA
ENDROOT
BRANCH   1   3
ATOM      3  O   UNK     1      -0.382  -3.130  -0.979  0.00  0.00    +0.000 OA
ATOM      4  H   UNK     1      -0.988  -3.884  -0.814  0.00  0.00    +0.000 HD
ENDBRANCH   1   3
BRANCH   1   5
ATOM      5  O   UNK     1       1.160  -1.216  -0.360  0.00  0.00    +0.000 OA
BRANCH   5   6
ATOM      6  C   UNK     1       1.649  -0.139   0.422  0.00  0.00    +0.000 C 
BRANCH   6   7
ATOM      7  C   UNK     1       2.772   0.573  -0.324  0.00  0.00    +0.000 C 
BRANCH   7   8
ATOM      8  O   UNK     1       3.839  -0.353  -0.539  0.00  0.00    +0.000 OA
ATOM      9  H   UNK     1       4.147  -0.664   0.329  0.00  0.00    +0.000 HD
ENDBRANCH   7   8
BRANCH   7  10
ATOM     10  C   UNK     1       3.321   1.743   0.483  0.00  0.00    +0.000 C 
BRANCH  10  11
ATOM     11  O   UNK     1       4.382   2.350  -0.247  0.00  0.00    +0.000 OA
ATOM     12  H   UNK     1       5.056   1.667  -0.404  0.00  0.00    +0.000 HD
ENDBRANCH  10  11
ENDBRANCH   7  10
ENDBRANCH   6   7
ENDBRANCH   5   6
ENDBRANCH   1   5
BRANCH   1  13
ATOM     13  O   UNK     1      -1.319  -1.128   0.300  0.00  0.00    +0.000 OA
BRANCH  13  14
ATOM     14  C   UNK     1      -1.722  -0.418  -0.866  0.00  0.00    +0.000 C 
BRANCH  14  15
ATOM     15  C   UNK     1      -2.941   0.441  -0.541  0.00  0.00    +0.000 C 
BRANCH  15  16
ATOM     16  N   UNK     1      -3.366   1.170  -1.734  0.00  0.00    +0.000 NA
ATOM     17  H   UNK     1      -2.614   1.774  -2.064  0.00  0.00    +0.000 HD
ATOM     18  H   UNK     1      -4.152   1.779  -1.508  0.00  0.00    +0.000 HD
ENDBRANCH  15  16
BRANCH  15  20
ATOM     19  O   UNK     1      -2.138   2.583   0.330  0.00  0.00    +0.000 OA
ATOM     20  C   UNK     1      -2.603   1.468   0.523  0.00  0.00    +0.000 C 
BRANCH  20  21
ATOM     21  O   UNK     1      -2.881   0.981   1.760  0.00  0.00    +0.000 OA
ATOM     22  H   UNK     1      -2.666   1.628   2.465  0.00  0.00    +0.000 HD
ENDBRANCH  20  21
ENDBRANCH  15  20
ENDBRANCH  14  15
ENDBRANCH  13  14
ENDBRANCH   1  13
TORSDOF 13
