REMARK  Name = 657087
REMARK  6 active torsions:
REMARK  status: ('A' for Active; 'I' for Inactive)
REMARK    1  A    between atoms: O_1  and  C_10
REMARK    2  A    between atoms: O_3  and  N_6
REMARK    3  A    between atoms: N_4  and  CA_8
REMARK    4  A    between atoms: N_5  and  C_9
REMARK    5  A    between atoms: CA_8  and  C_9
REMARK    6  A    between atoms: CA_8  and  C_10
REMARK                            x       y       z     vdW  Elec       q    Type
REMARK                         _______ _______ _______ _____ _____    ______ ____
ROOT
ATOM      1  N   UNL     1       0.758  -0.105   0.267  0.00  0.00    +0.000 NA
ATOM      2  N   UNL     1       3.029   0.395  -0.008  0.00  0.00    +0.000 N 
ATOM      3  N   UNL     1       2.342  -1.694  -0.575  0.00  0.00    +0.000 N 
ATOM      4  C   UNL     1       1.952  -0.463  -0.089  0.00  0.00    +0.000 C 
ATOM      5  H   UNL     1       3.947   0.175  -0.380  0.00  0.00    +0.000 HD
ATOM      6  H   UNL     1       3.309  -1.874  -0.823  0.00  0.00    +0.000 HD
ATOM      7  H   UNL     1       1.688  -2.458  -0.705  0.00  0.00    +0.000 HD
ENDROOT
BRANCH   2   8
ATOM      8  O   UNL     1       2.747   1.725   0.219  0.00  0.00    +0.000 OA
ATOM      9  H   UNL     1       3.539   2.017   0.701  0.00  0.00    +0.000 HD
ENDBRANCH   2   8
BRANCH   1  10
ATOM     10  C   UNL     1      -0.302  -1.109   0.138  0.00  0.00    +0.000 C 
BRANCH  10  11
ATOM     11  CA  UNL     1      -1.627  -0.522   0.621  0.00  0.00    +0.000 C 
BRANCH  11  12
ATOM     12  N   UNL     1      -2.694  -1.506   0.431  0.00  0.00    +0.000 NA
ATOM     13  H1  UNL     1      -2.480  -2.347   0.967  0.00  0.00    +0.000 HD
ATOM     14  H2  UNL     1      -2.725  -1.800  -0.545  0.00  0.00    +0.000 HD
ENDBRANCH  11  12
BRANCH  11  16
ATOM     15  OXT UNL     1      -2.620   0.711  -1.240  0.00  0.00    +0.000 OA
ATOM     16  C   UNL     1      -2.004   0.712  -0.182  0.00  0.00    +0.000 C 
BRANCH  16  17
ATOM     17  O   UNL     1      -1.581   1.857   0.417  0.00  0.00    +0.000 OA
ATOM     18  H   UNL     1      -1.829   2.653  -0.100  0.00  0.00    +0.000 HD
ENDBRANCH  16  17
ENDBRANCH  11  16
ENDBRANCH  10  11
ENDBRANCH   1  10
TORSDOF 6
