REMARK  Name = 15227560
REMARK  7 active torsions:
REMARK  status: ('A' for Active; 'I' for Inactive)
REMARK    1  A    between atoms: O_2  and  C_10
REMARK    2  A    between atoms: N_4  and  C_7
REMARK    3  A    between atoms: C_5  and  C_6
REMARK    4  A    between atoms: C_5  and  C_8
REMARK    5  A    between atoms: C_5  and  C_9
REMARK    6  A    between atoms: C_6  and  C_7
REMARK    7  A    between atoms: C_7  and  C_10
REMARK                            x       y       z     vdW  Elec       q    Type
REMARK                         _______ _______ _______ _____ _____    ______ ____
ROOT
ATOM      1  C   UNK     1       1.011  -0.352  -0.364  0.00  0.00    +0.000 C 
ENDROOT
BRANCH   1   2
ATOM      2  N   UNK     1       1.066  -1.766   0.016  0.00  0.00    +0.000 NA
ATOM      3  H   UNK     1       1.845  -2.216  -0.462  0.00  0.00    +0.000 HD
ATOM      4  H   UNK     1       0.229  -2.245  -0.312  0.00  0.00    +0.000 HD
ENDBRANCH   1   2
BRANCH   1   6
ATOM      5  O   UNK     1       3.229  -0.312   0.653  0.00  0.00    +0.000 OA
ATOM      6  C   UNK     1       2.331   0.261   0.051  0.00  0.00    +0.000 C 
BRANCH   6   7
ATOM      7  O   UNK     1       2.411   1.552  -0.361  0.00  0.00    +0.000 OA
ATOM      8  H   UNK     1       3.265   1.964  -0.111  0.00  0.00    +0.000 HD
ENDBRANCH   6   7
ENDBRANCH   1   6
BRANCH   1   9
ATOM      9  C   UNK     1      -0.166   0.325   0.353  0.00  0.00    +0.000 C 
BRANCH   9  10
ATOM     10  C   UNK     1      -1.562  -0.200  -0.039  0.00  0.00    +0.000 C 
ATOM     11  C   UNK     1      -1.833  -0.071  -1.540  0.00  0.00    +0.000 C 
BRANCH  10  13
ATOM     12  F   UNK     1      -3.852   0.006   0.484  0.00  0.00    +0.000 F 
ATOM     13  C   UNK     1      -2.636   0.557   0.747  0.00  0.00    +0.000 C 
ENDBRANCH  10  13
ENDBRANCH   9  10
ENDBRANCH   1   9
TORSDOF 6
