REMARK  Name = 6971307
REMARK  8 active torsions:
REMARK  status: ('A' for Active; 'I' for Inactive)
REMARK    1  A    between atoms: P_1  and  O_2
REMARK    2  A    between atoms: P_1  and  C_7
REMARK    3  A    between atoms: P_1  and  C_10
REMARK    4  A    between atoms: O_4  and  C_11
REMARK    5  A    between atoms: N_6  and  CA_9
REMARK    6  A    between atoms: C_7  and  C_8
REMARK    7  A    between atoms: C_8  and  CA_9
REMARK    8  A    between atoms: CA_9  and  C_11
REMARK                            x       y       z     vdW  Elec       q    Type
REMARK                         _______ _______ _______ _____ _____    ______ ____
ROOT
ATOM      1  CA  UNL     1      -1.065   0.317   0.125  0.00  0.00    +0.000 C 
ENDROOT
BRANCH   1   2
ATOM      2  N   UNL     1      -1.193   1.773   0.128  0.00  0.00    +0.000 NA
ATOM      3  H1  UNL     1      -1.548   2.092  -0.773  0.00  0.00    +0.000 HD
ATOM      4  H2  UNL     1      -0.275   2.201   0.237  0.00  0.00    +0.000 HD
ENDBRANCH   1   2
BRANCH   1   6
ATOM      5  OXT UNL     1      -3.506   0.364   0.087  0.00  0.00    +0.000 OA
ATOM      6  C   UNL     1      -2.464  -0.276   0.138  0.00  0.00    +0.000 C 
BRANCH   6   7
ATOM      7  O   UNL     1      -2.439  -1.634   0.203  0.00  0.00    +0.000 OA
ATOM      8  H   UNL     1      -3.343  -2.016   0.205  0.00  0.00    +0.000 HD
ENDBRANCH   6   7
ENDBRANCH   1   6
BRANCH   1   9
ATOM      9  C   UNL     1      -0.292  -0.187  -1.101  0.00  0.00    +0.000 C 
BRANCH   9  10
ATOM     10  C   UNL     1       1.126   0.365  -1.207  0.00  0.00    +0.000 C 
BRANCH  10  11
ATOM     11  P   UNL     1       2.183  -0.015   0.205  0.00  0.00    +0.000 P 
ATOM     12  O   UNL     1       1.757   0.670   1.457  0.00  0.00    +0.000 OA
ATOM     13  C   UNL     1       2.252  -1.782   0.299  0.00  0.00    +0.000 C 
BRANCH  11  14
ATOM     14  O   UNL     1       3.642   0.403  -0.335  0.00  0.00    +0.000 OA
ATOM     15  H   UNL     1       4.429   0.224   0.223  0.00  0.00    +0.000 HD
ENDBRANCH  11  14
ENDBRANCH  10  11
ENDBRANCH   9  10
ENDBRANCH   1   9
TORSDOF 7
