REMARK  Name = 6993635
REMARK  5 active torsions:
REMARK  status: ('A' for Active; 'I' for Inactive)
REMARK    1  A    between atoms: N_3  and  CA_5
REMARK    2  A    between atoms: C_4  and  CA_5
REMARK    3  A    between atoms: C_4  and  C_6
REMARK    4  A    between atoms: CA_5  and  C_10
REMARK    5  A    between atoms: C_9  and  C_13
REMARK                            x       y       z     vdW  Elec       q    Type
REMARK                         _______ _______ _______ _____ _____    ______ ____
ROOT
ATOM      1  C   UNL     1      -1.034  -1.006  -0.914  0.00  0.00    +0.000 C 
ENDROOT
BRANCH   1   2
ATOM      2  C   UNL     1       0.371  -0.743  -0.425  0.00  0.00    +0.000 A 
ATOM      3  C   UNL     1       0.952   0.492  -0.662  0.00  0.00    +0.000 A 
ATOM      4  C   UNL     1       1.052  -1.742   0.252  0.00  0.00    +0.000 A 
ATOM      5  C   UNL     1       2.249   0.736  -0.211  0.00  0.00    +0.000 A 
ATOM      6  C   UNL     1       2.349  -1.499   0.704  0.00  0.00    +0.000 A 
ATOM      7  C   UNL     1       2.947  -0.260   0.472  0.00  0.00    +0.000 A 
ATOM      8  C   UNL     1       2.889   2.060  -0.458  0.00  0.00    +0.000 C 
ENDBRANCH   1   2
BRANCH   1   9
ATOM      9  CA  UNL     1      -2.099  -0.631   0.122  0.00  0.00    +0.000 C 
BRANCH   9  10
ATOM     10  N   UNL     1      -3.420  -1.076  -0.426  0.00  0.00    +0.000 N 
ATOM     11  H1  UNL     1      -4.182  -0.874   0.235  0.00  0.00    +0.000 HD
ATOM     12  H2  UNL     1      -3.433  -2.089  -0.606  0.00  0.00    +0.000 HD
ATOM     13  H3  UNL     1      -3.644  -0.599  -1.310  0.00  0.00    +0.000 HD
ENDBRANCH   9  10
BRANCH   9  16
ATOM     14  O   UNL     1      -2.245   1.627  -0.557  0.00  0.00    +0.000 OA
ATOM     15  OXT UNL     1      -1.925   1.170   1.660  0.00  0.00    +0.000 OA
ATOM     16  C   UNL     1      -2.085   0.871   0.443  0.00  0.00    +0.000 C 
ENDBRANCH   9  16
ENDBRANCH   1   9
TORSDOF 4
