REMARK  Name = 99594
REMARK  7 active torsions:
REMARK  status: ('A' for Active; 'I' for Inactive)
REMARK    1  A    between atoms: O_1  and  C_14
REMARK    2  A    between atoms: N_3  and  CA_8
REMARK    3  A    between atoms: N_4  and  C_11
REMARK    4  A    between atoms: C_5  and  C_6
REMARK    5  A    between atoms: C_6  and  C_7
REMARK    6  A    between atoms: C_7  and  CA_8
REMARK    7  A    between atoms: CA_8  and  C_14
REMARK                            x       y       z     vdW  Elec       q    Type
REMARK                         _______ _______ _______ _____ _____    ______ ____
ROOT
ATOM      1  C   UNL     1      -0.055  -1.753   0.393  0.00  0.00    +0.000 C 
ENDROOT
BRANCH   1   2
ATOM      2  C   UNL     1       1.455  -1.560   0.250  0.00  0.00    +0.000 C 
ATOM      3  C   UNL     1       1.784  -1.055  -1.132  0.00  0.00    +0.000 C 
ATOM      4  C   UNL     1       1.966  -0.658   1.346  0.00  0.00    +0.000 C 
ATOM      5  C   UNL     1       2.909   1.018  -0.269  0.00  0.00    +0.000 C 
ATOM      6  C   UNL     1       2.428   0.099  -1.364  0.00  0.00    +0.000 C 
ATOM      7  C   UNL     1       2.610   0.495   1.113  0.00  0.00    +0.000 C 
BRANCH   5   8
ATOM      8  N   UNL     1       2.366   2.369  -0.430  0.00  0.00    +0.000 NA
ATOM      9  H   UNL     1       2.650   2.743  -1.336  0.00  0.00    +0.000 HD
ATOM     10  H   UNL     1       2.787   2.989   0.262  0.00  0.00    +0.000 HD
ENDBRANCH   5   8
ENDBRANCH   1   2
BRANCH   1  11
ATOM     11  C   UNL     1      -0.803  -0.444   0.129  0.00  0.00    +0.000 C 
BRANCH  11  12
ATOM     12  CA  UNL     1      -2.326  -0.542   0.302  0.00  0.00    +0.000 C 
BRANCH  12  13
ATOM     13  N   UNL     1      -2.908  -1.514  -0.621  0.00  0.00    +0.000 NA
ATOM     14  H1  UNL     1      -2.734  -1.229  -1.584  0.00  0.00    +0.000 HD
ATOM     15  H2  UNL     1      -3.920  -1.545  -0.503  0.00  0.00    +0.000 HD
ENDBRANCH  12  13
BRANCH  12  17
ATOM     16  OXT UNL     1      -3.858   1.039  -0.766  0.00  0.00    +0.000 OA
ATOM     17  C   UNL     1      -3.015   0.791   0.084  0.00  0.00    +0.000 C 
BRANCH  17  18
ATOM     18  O   UNL     1      -2.553   1.715   0.966  0.00  0.00    +0.000 OA
ATOM     19  H   UNL     1      -2.979   2.589   0.837  0.00  0.00    +0.000 HD
ENDBRANCH  17  18
ENDBRANCH  12  17
ENDBRANCH  11  12
ENDBRANCH   1  11
TORSDOF 7
