REMARK  Name = 445478
REMARK  9 active torsions:
REMARK  status: ('A' for Active; 'I' for Inactive)
REMARK    1  A    between atoms: O_1  and  C_11
REMARK    2  A    between atoms: O_3  and  C_12
REMARK    3  A    between atoms: N_5  and  CA_8
REMARK    4  A    between atoms: C_6  and  C_7
REMARK    5  A    between atoms: C_6  and  CA_8
REMARK    6  A    between atoms: C_7  and  C_9
REMARK    7  A    between atoms: CA_8  and  C_11
REMARK    8  A    between atoms: C_9  and  C_10
REMARK    9  A    between atoms: C_10  and  C_12
REMARK                            x       y       z     vdW  Elec       q    Type
REMARK                         _______ _______ _______ _____ _____    ______ ____
ROOT
ATOM      1  C   UNL     1       1.365   0.778   1.075  0.00  0.00    +0.000 C 
ENDROOT
BRANCH   1   2
ATOM      2  C   UNL     1       0.142   0.632   0.156  0.00  0.00    +0.000 C 
BRANCH   2   3
ATOM      3  C   UNL     1      -1.190   0.842   0.892  0.00  0.00    +0.000 C 
BRANCH   3   4
ATOM      4  C   UNL     1      -2.411   0.629   0.035  0.00  0.00    +0.000 C 
ATOM      5  C   UNL     1      -3.010   1.633  -0.623  0.00  0.00    +0.000 C 
BRANCH   4   7
ATOM      6  O   UNL     1      -4.027  -0.973  -0.755  0.00  0.00    +0.000 OA
ATOM      7  C   UNL     1      -3.029  -0.715  -0.100  0.00  0.00    +0.000 C 
BRANCH   7   8
ATOM      8  O   UNL     1      -2.338  -1.635   0.612  0.00  0.00    +0.000 OA
ATOM      9  H   UNL     1      -2.733  -2.530   0.536  0.00  0.00    +0.000 HD
ENDBRANCH   7   8
ENDBRANCH   4   7
ENDBRANCH   3   4
ENDBRANCH   2   3
ENDBRANCH   1   2
BRANCH   1  10
ATOM     10  CA  UNL     1       2.724   0.631   0.371  0.00  0.00    +0.000 C 
BRANCH  10  11
ATOM     11  N   UNL     1       2.927   1.628  -0.680  0.00  0.00    +0.000 NA
ATOM     12  H1  UNL     1       3.884   1.571  -1.026  0.00  0.00    +0.000 HD
ATOM     13  H2  UNL     1       2.822   2.563  -0.287  0.00  0.00    +0.000 HD
ENDBRANCH  10  11
BRANCH  10  15
ATOM     14  OXT UNL     1       3.090  -0.975  -1.431  0.00  0.00    +0.000 OA
ATOM     15  C   UNL     1       2.907  -0.746  -0.243  0.00  0.00    +0.000 C 
BRANCH  15  16
ATOM     16  O   UNL     1       2.850  -1.731   0.692  0.00  0.00    +0.000 OA
ATOM     17  H   UNL     1       2.969  -2.619   0.294  0.00  0.00    +0.000 HD
ENDBRANCH  15  16
ENDBRANCH  10  15
ENDBRANCH   1  10
TORSDOF 9
