REMARK  Name = 446250
REMARK  9 active torsions:
REMARK  status: ('A' for Active; 'I' for Inactive)
REMARK    1  A    between atoms: O_1  and  C_8
REMARK    2  A    between atoms: O_1  and  C_9
REMARK    3  A    between atoms: O_2  and  C_10
REMARK    4  A    between atoms: N_4  and  CA_7
REMARK    5  A    between atoms: N_5  and  C_11
REMARK    6  A    between atoms: C_6  and  CA_7
REMARK    7  A    between atoms: C_6  and  C_8
REMARK    8  A    between atoms: CA_7  and  C_10
REMARK    9  A    between atoms: C_9  and  C_11
REMARK                            x       y       z     vdW  Elec       q    Type
REMARK                         _______ _______ _______ _____ _____    ______ ____
ROOT
ATOM      1  C   UNL     1       0.825   0.351   1.035  0.00  0.00    +0.000 C 
ENDROOT
BRANCH   1   2
ATOM      2  CA  UNL     1       1.461  -0.225  -0.239  0.00  0.00    +0.000 C 
BRANCH   2   3
ATOM      3  N   UNL     1       1.445  -1.688  -0.254  0.00  0.00    +0.000 NA
ATOM      4  H1  UNL     1       1.952  -2.052   0.551  0.00  0.00    +0.000 HD
ATOM      5  H2  UNL     1       1.925  -2.033  -1.084  0.00  0.00    +0.000 HD
ENDBRANCH   2   3
BRANCH   2   7
ATOM      6  OXT UNL     1       3.882  -0.538  -0.339  0.00  0.00    +0.000 OA
ATOM      7  C   UNL     1       2.914   0.210  -0.335  0.00  0.00    +0.000 C 
BRANCH   7   8
ATOM      8  O   UNL     1       3.032   1.562  -0.432  0.00  0.00    +0.000 OA
ATOM      9  H   UNL     1       3.970   1.842  -0.499  0.00  0.00    +0.000 HD
ENDBRANCH   7   8
ENDBRANCH   2   7
ENDBRANCH   1   2
BRANCH   1  10
ATOM     10  C   UNL     1      -0.618  -0.081   1.287  0.00  0.00    +0.000 C 
BRANCH  10  11
ATOM     11  O   UNL     1      -1.459   0.289   0.204  0.00  0.00    +0.000 OA
BRANCH  11  12
ATOM     12  C   UNL     1      -2.805  -0.110   0.427  0.00  0.00    +0.000 C 
BRANCH  12  13
ATOM     13  C   UNL     1      -3.645   0.317  -0.766  0.00  0.00    +0.000 C 
BRANCH  13  14
ATOM     14  N   UNL     1      -5.032  -0.087  -0.589  0.00  0.00    +0.000 NA
ATOM     15  H   UNL     1      -5.088  -1.101  -0.507  0.00  0.00    +0.000 HD
ATOM     16  H   UNL     1      -5.566   0.162  -1.420  0.00  0.00    +0.000 HD
ENDBRANCH  13  14
ENDBRANCH  12  13
ENDBRANCH  11  12
ENDBRANCH  10  11
ENDBRANCH   1  10
TORSDOF 9
