REMARK  Name = 446719
REMARK  9 active torsions:
REMARK  status: ('A' for Active; 'I' for Inactive)
REMARK    1  A    between atoms: O_1  and  C_11
REMARK    2  A    between atoms: O_3  and  C_12
REMARK    3  A    between atoms: N_5  and  CA_9
REMARK    4  A    between atoms: C_6  and  C_7
REMARK    5  A    between atoms: C_6  and  C_8
REMARK    6  A    between atoms: C_7  and  CA_9
REMARK    7  A    between atoms: C_8  and  C_10
REMARK    8  A    between atoms: CA_9  and  C_11
REMARK    9  A    between atoms: C_10  and  C_12
REMARK                            x       y       z     vdW  Elec       q    Type
REMARK                         _______ _______ _______ _____ _____    ______ ____
ROOT
ATOM      1  C   UNL     1      -1.133   0.822  -0.782  0.00  0.00    +0.000 C 
ENDROOT
BRANCH   1   2
ATOM      2  C   UNL     1      -0.097   0.220   0.179  0.00  0.00    +0.000 C 
BRANCH   2   3
ATOM      3  C   UNL     1       1.336   0.300  -0.356  0.00  0.00    +0.000 C 
BRANCH   3   4
ATOM      4  C   UNL     1       2.367  -0.324   0.579  0.00  0.00    +0.000 C 
BRANCH   4   6
ATOM      5  O   UNL     1       4.012   0.371  -1.048  0.00  0.00    +0.000 OA
ATOM      6  C   UNL     1       3.761  -0.142   0.035  0.00  0.00    +0.000 C 
BRANCH   6   7
ATOM      7  O   UNL     1       4.714  -0.623   0.872  0.00  0.00    +0.000 OA
ATOM      8  H   UNL     1       5.616  -0.505   0.507  0.00  0.00    +0.000 HD
ENDBRANCH   6   7
ENDBRANCH   4   6
ENDBRANCH   3   4
ENDBRANCH   2   3
ENDBRANCH   1   2
BRANCH   1   9
ATOM      9  CA  UNL     1      -2.580   0.808  -0.267  0.00  0.00    +0.000 C 
BRANCH   9  10
ATOM     10  N   UNL     1      -2.727   1.565   0.977  0.00  0.00    +0.000 NA
ATOM     11  H1  UNL     1      -2.338   2.499   0.857  0.00  0.00    +0.000 HD
ATOM     12  H2  UNL     1      -2.188   1.128   1.723  0.00  0.00    +0.000 HD
ENDBRANCH   9  10
BRANCH   9  14
ATOM     13  OXT UNL     1      -3.481  -1.053   1.031  0.00  0.00    +0.000 OA
ATOM     14  C   UNL     1      -3.094  -0.603  -0.040  0.00  0.00    +0.000 C 
BRANCH  14  15
ATOM     15  O   UNL     1      -3.079  -1.340  -1.182  0.00  0.00    +0.000 OA
ATOM     16  H   UNL     1      -3.409  -2.251  -1.033  0.00  0.00    +0.000 HD
ENDBRANCH  14  15
ENDBRANCH   9  14
ENDBRANCH   1   9
TORSDOF 9
