REMARK  Name = 447569
REMARK  5 active torsions:
REMARK  status: ('A' for Active; 'I' for Inactive)
REMARK    1  A    between atoms: O_2  and  C_9
REMARK    2  A    between atoms: N_4  and  CA_8
REMARK    3  A    between atoms: C_5  and  C_6
REMARK    4  A    between atoms: C_6  and  CA_8
REMARK    5  A    between atoms: CA_8  and  C_9
REMARK                            x       y       z     vdW  Elec       q    Type
REMARK                         _______ _______ _______ _____ _____    ______ ____
ROOT
ATOM      1  CA  UNL     1      -0.727   0.634  -0.495  0.00  0.00    +0.000 C 
ENDROOT
BRANCH   1   2
ATOM      2  N   UNL     1      -1.635   1.780  -0.436  0.00  0.00    +0.000 NA
ATOM      3  H1  UNL     1      -1.162   2.606  -0.802  0.00  0.00    +0.000 HD
ATOM      4  H2  UNL     1      -1.857   1.997   0.536  0.00  0.00    +0.000 HD
ENDBRANCH   1   2
BRANCH   1   6
ATOM      5  OXT UNL     1      -2.351  -0.529   0.910  0.00  0.00    +0.000 OA
ATOM      6  C   UNL     1      -1.495  -0.559   0.037  0.00  0.00    +0.000 C 
BRANCH   6   7
ATOM      7  O   UNL     1      -1.086  -1.702  -0.572  0.00  0.00    +0.000 OA
ATOM      8  H   UNL     1      -1.562  -2.489  -0.230  0.00  0.00    +0.000 HD
ENDBRANCH   6   7
ENDBRANCH   1   6
BRANCH   1   9
ATOM      9  C   UNL     1       0.517   0.913   0.354  0.00  0.00    +0.000 C 
BRANCH   9  11
ATOM     10  O   UNL     1       2.839   0.141   0.538  0.00  0.00    +0.000 OA
ATOM     11  C   UNL     1       1.475  -0.242   0.382  0.00  0.00    +0.000 C 
ATOM     12  C   UNL     1       2.462  -0.436  -0.719  0.00  0.00    +0.000 C 
ENDBRANCH   9  11
ENDBRANCH   1   9
TORSDOF 5
