REMARK  Name = 5288620
REMARK  6 active torsions:
REMARK  status: ('A' for Active; 'I' for Inactive)
REMARK    1  A    between atoms: O_1  and  C_8
REMARK    2  A    between atoms: N_4  and  CA_5
REMARK    3  A    between atoms: CA_5  and  C_6
REMARK    4  A    between atoms: CA_5  and  C_8
REMARK    5  A    between atoms: C_6  and  C_7
REMARK    6  A    between atoms: C_7  and  C_9
REMARK                            x       y       z     vdW  Elec       q    Type
REMARK                         _______ _______ _______ _____ _____    ______ ____
ROOT
ATOM      1  CA  UNL     1       0.870   0.545   0.712  0.00  0.00    +0.000 C 
ENDROOT
BRANCH   1   2
ATOM      2  N   UNL     1       1.052   1.927   0.179  0.00  0.00    +0.000 N 
ATOM      3  H1  UNL     1       0.851   1.985  -0.828  0.00  0.00    +0.000 HD
ATOM      4  H2  UNL     1       2.019   2.249   0.313  0.00  0.00    +0.000 HD
ATOM      5  H3  UNL     1       0.439   2.600   0.659  0.00  0.00    +0.000 HD
ENDBRANCH   1   2
BRANCH   1   7
ATOM      6  OXT UNL     1       2.427  -0.140  -1.025  0.00  0.00    +0.000 OA
ATOM      7  C   UNL     1       1.750  -0.425  -0.045  0.00  0.00    +0.000 C 
BRANCH   7   8
ATOM      8  O   UNL     1       1.716  -1.672   0.491  0.00  0.00    +0.000 OA
ATOM      9  H   UNL     1       2.290  -2.297  -0.001  0.00  0.00    +0.000 HD
ENDBRANCH   7   8
ENDBRANCH   1   7
BRANCH   1  10
ATOM     10  C   UNL     1      -0.613   0.166   0.665  0.00  0.00    +0.000 C 
BRANCH  10  11
ATOM     11  C   UNL     1      -1.229   0.164  -0.735  0.00  0.00    +0.000 C 
BRANCH  11  13
ATOM     12  O   UNL     1      -3.272  -0.408   0.406  0.00  0.00    +0.000 OA
ATOM     13  C   UNL     1      -2.699  -0.156  -0.648  0.00  0.00    +0.000 C 
ENDBRANCH  11  13
ENDBRANCH  10  11
ENDBRANCH   1  10
TORSDOF 6
