REMARK  Name = 71657455
REMARK  7 active torsions:
REMARK  status: ('A' for Active; 'I' for Inactive)
REMARK    1  A    between atoms: N_8  and  C_14
REMARK    2  A    between atoms: N_9  and  C_19
REMARK    3  A    between atoms: N_9  and  C_26
REMARK    4  A    between atoms: C_18  and  C_22
REMARK    5  A    between atoms: C_19  and  C_20
REMARK    6  A    between atoms: C_19  and  C_25
REMARK    7  A    between atoms: C_36  and  C_41
REMARK                            x       y       z     vdW  Elec       q    Type
REMARK                         _______ _______ _______ _____ _____    ______ ____
ROOT
ATOM      1  O   UNL     1       0.860  -2.068   1.007  0.00  0.00    +0.000 OA
ATOM      2  N   UNL     1      -0.074  -0.298  -0.233  0.00  0.00    +0.000 N 
ATOM      3  C   UNL     1       0.872  -1.308   0.035  0.00  0.00    +0.000 C 
ENDROOT
BRANCH   3   7
ATOM      4  O   UNL     1       3.991  -4.276  -0.121  0.00  0.00    +0.000 OA
ATOM      5  N   UNL     1       3.132  -2.056  -0.340  0.00  0.00    +0.000 N 
ATOM      6  N   UNL     1       5.107  -1.890   0.999  0.00  0.00    +0.000 NA
ATOM      7  C   UNL     1       1.960  -1.488  -0.982  0.00  0.00    +0.000 C 
ATOM      8  C   UNL     1       1.559  -2.530  -2.010  0.00  0.00    +0.000 C 
ATOM      9  C   UNL     1       2.000  -3.841  -1.384  0.00  0.00    +0.000 C 
ATOM     10  C   UNL     1       3.193  -3.451  -0.542  0.00  0.00    +0.000 C 
ATOM     11  C   UNL     1       4.060  -1.268   0.412  0.00  0.00    +0.000 A 
ATOM     12  C   UNL     1       3.824   0.095   0.492  0.00  0.00    +0.000 A 
ATOM     13  C   UNL     1       4.720   0.869   1.221  0.00  0.00    +0.000 A 
ATOM     14  C   UNL     1       5.957  -1.105   1.699  0.00  0.00    +0.000 A 
ATOM     15  C   UNL     1       5.809   0.265   1.839  0.00  0.00    +0.000 A 
BRANCH  13  17
ATOM     16  N   UNL     1       4.363   3.425   1.427  0.00  0.00    +0.000 NA
ATOM     17  C   UNL     1       4.523   2.280   1.335  0.00  0.00    +0.000 C 
ENDBRANCH  13  17
ENDBRANCH   3   7
BRANCH   2  20
ATOM     18  F   UNL     1       1.564   3.814  -2.207  0.00  0.00    +0.000 F 
ATOM     19  N   UNL     1      -0.332   1.097  -3.685  0.00  0.00    +0.000 NA
ATOM     20  C   UNL     1       0.085   0.605  -1.355  0.00  0.00    +0.000 A 
ATOM     21  C   UNL     1       0.772   1.806  -1.216  0.00  0.00    +0.000 A 
ATOM     22  C   UNL     1      -0.444   0.300  -2.599  0.00  0.00    +0.000 A 
ATOM     23  C   UNL     1       0.908   2.653  -2.311  0.00  0.00    +0.000 A 
ATOM     24  C   UNL     1       0.343   2.256  -3.512  0.00  0.00    +0.000 A 
ENDBRANCH   2  20
BRANCH   2  25
ATOM     25  C   UNL     1      -1.214  -0.044   0.661  0.00  0.00    +0.000 C 
BRANCH  25  27
ATOM     26 CL   UNL     1       0.237   1.752   2.716  0.00  0.00    +0.000 Cl
ATOM     27  C   UNL     1      -1.581   1.421   0.713  0.00  0.00    +0.000 A 
ATOM     28  C   UNL     1      -0.972   2.297   1.611  0.00  0.00    +0.000 A 
ATOM     29  C   UNL     1      -2.555   1.891  -0.169  0.00  0.00    +0.000 A 
ATOM     30  C   UNL     1      -1.337   3.643   1.629  0.00  0.00    +0.000 A 
ATOM     31  C   UNL     1      -2.920   3.237  -0.151  0.00  0.00    +0.000 A 
ATOM     32  C   UNL     1      -2.312   4.113   0.748  0.00  0.00    +0.000 A 
ENDBRANCH  25  27
BRANCH  25  35
ATOM     33  O   UNL     1      -2.341  -1.573  -0.846  0.00  0.00    +0.000 OA
ATOM     34  N   UNL     1      -3.452  -0.876   1.066  0.00  0.00    +0.000 N 
ATOM     35  C   UNL     1      -2.378  -0.903   0.185  0.00  0.00    +0.000 C 
ATOM     36  H   UNL     1      -3.365  -0.305   1.903  0.00  0.00    +0.000 HD
BRANCH  34  39
ATOM     37  F   UNL     1      -7.789  -0.571   0.514  0.00  0.00    +0.000 F 
ATOM     38  F   UNL     1      -7.321  -2.690   0.433  0.00  0.00    +0.000 F 
ATOM     39  C   UNL     1      -4.662  -1.654   0.848  0.00  0.00    +0.000 C 
ATOM     40  C   UNL     1      -5.553  -1.163  -0.312  0.00  0.00    +0.000 C 
ATOM     41  C   UNL     1      -5.826  -1.304   1.797  0.00  0.00    +0.000 C 
ATOM     42  C   UNL     1      -6.776  -1.461   0.586  0.00  0.00    +0.000 C 
ENDBRANCH  34  39
ENDBRANCH  25  35
ENDBRANCH   2  25
TORSDOF 7
