REMARK  Name = 9978312
REMARK  6 active torsions:
REMARK  status: ('A' for Active; 'I' for Inactive)
REMARK    1  A    between atoms: O_3  and  C_23
REMARK    2  A    between atoms: O_4  and  C_27
REMARK    3  A    between atoms: N_6  and  C_14
REMARK    4  A    between atoms: C_14  and  C_21
REMARK    5  A    between atoms: C_16  and  C_22
REMARK    6  A    between atoms: C_21  and  C_27
REMARK                            x       y       z     vdW  Elec       q    Type
REMARK                         _______ _______ _______ _____ _____    ______ ____
ROOT
ATOM      1  O   UNL     1       0.414   4.104   0.423  0.00  0.00    +0.000 OA
ATOM      2  O   UNL     1      -3.827   2.321   0.340  0.00  0.00    +0.000 OA
ATOM      3  N   UNL     1       1.693  -0.937  -0.423  0.00  0.00    +0.000 N 
ATOM      4  N   UNL     1      -1.852   3.556   0.441  0.00  0.00    +0.000 N 
ATOM      5  C   UNL     1       0.749   1.058  -0.068  0.00  0.00    +0.000 A 
ATOM      6  C   UNL     1       0.483  -0.306  -0.269  0.00  0.00    +0.000 A 
ATOM      7  C   UNL     1       2.174   1.222  -0.106  0.00  0.00    +0.000 A 
ATOM      8  C   UNL     1       2.730  -0.041  -0.329  0.00  0.00    +0.000 A 
ATOM      9  C   UNL     1      -0.377   1.871   0.110  0.00  0.00    +0.000 A 
ATOM     10  C   UNL     1      -1.665   1.337   0.086  0.00  0.00    +0.000 A 
ATOM     11  C   UNL     1      -0.819  -0.852  -0.295  0.00  0.00    +0.000 A 
ATOM     12  C   UNL     1      -1.914  -0.003  -0.112  0.00  0.00    +0.000 A 
ATOM     13  C   UNL     1      -0.502   3.309   0.341  0.00  0.00    +0.000 C 
ATOM     14  C   UNL     1       3.060   2.313   0.025  0.00  0.00    +0.000 A 
ATOM     15  C   UNL     1       4.109  -0.264  -0.426  0.00  0.00    +0.000 A 
ATOM     16  C   UNL     1      -2.616   2.426   0.300  0.00  0.00    +0.000 C 
ATOM     17  C   UNL     1       4.442   2.107  -0.069  0.00  0.00    +0.000 A 
ATOM     18  C   UNL     1       4.958   0.835  -0.291  0.00  0.00    +0.000 A 
ATOM     19  H   UNL     1      -2.241   4.479   0.603  0.00  0.00    +0.000 HD
ENDROOT
BRANCH  12  20
ATOM     20  C   UNL     1      -3.251  -0.555  -0.138  0.00  0.00    +0.000 A 
ATOM     21  C   UNL     1      -3.841  -1.008   1.042  0.00  0.00    +0.000 A 
ATOM     22  C   UNL     1      -3.950  -0.634  -1.342  0.00  0.00    +0.000 A 
ATOM     23  C   UNL     1      -5.131  -1.540   1.018  0.00  0.00    +0.000 A 
ATOM     24  C   UNL     1      -5.239  -1.166  -1.366  0.00  0.00    +0.000 A 
ATOM     25  C   UNL     1      -5.830  -1.619  -0.186  0.00  0.00    +0.000 A 
ENDBRANCH  12  20
BRANCH  17  26
ATOM     26  O   UNL     1       5.290   3.167   0.060  0.00  0.00    +0.000 OA
ATOM     27  H   UNL     1       4.768   3.973   0.210  0.00  0.00    +0.000 HD
ENDBRANCH  17  26
BRANCH   3  28
ATOM     28  C   UNL     1       1.855  -2.359  -0.654  0.00  0.00    +0.000 C 
BRANCH  28  29
ATOM     29  C   UNL     1       1.985  -3.174   0.634  0.00  0.00    +0.000 C 
BRANCH  29  31
ATOM     30  O   UNL     1       2.299  -5.189  -0.701  0.00  0.00    +0.000 OA
ATOM     31  C   UNL     1       2.216  -4.650   0.393  0.00  0.00    +0.000 C 
BRANCH  31  32
ATOM     32  O   UNL     1       2.358  -5.328   1.563  0.00  0.00    +0.000 OA
ATOM     33  H   UNL     1       2.522  -6.283   1.414  0.00  0.00    +0.000 HD
ENDBRANCH  31  32
ENDBRANCH  29  31
ENDBRANCH  28  29
ENDBRANCH   3  28
TORSDOF 6
