REMARK  Name = 5625
REMARK  9 active torsions:
REMARK  status: ('A' for Active; 'I' for Inactive)
REMARK    1  A    between atoms: S_1  and  N_10
REMARK    2  A    between atoms: S_1  and  C_32
REMARK    3  A    between atoms: N_5  and  C_15
REMARK    4  A    between atoms: N_8  and  C_18
REMARK    5  A    between atoms: N_8  and  C_22
REMARK    6  A    between atoms: N_10  and  C_27
REMARK    7  A    between atoms: C_16  and  C_17
REMARK    8  A    between atoms: C_22  and  C_30
REMARK    9  A    between atoms: C_22  and  C_31
REMARK                            x       y       z     vdW  Elec       q    Type
REMARK                         _______ _______ _______ _____ _____    ______ ____
ROOT
ATOM      1  O   UNL     1       0.283  -3.914   1.346  0.00  0.00    +0.000 OA
ATOM      2  N   UNL     1      -3.272  -0.768  -0.175  0.00  0.00    +0.000 N 
ATOM      3  N   UNL     1      -1.042  -2.053   0.980  0.00  0.00    +0.000 N 
ATOM      4  C   UNL     1      -3.132  -2.229  -0.298  0.00  0.00    +0.000 C 
ATOM      5  C   UNL     1      -2.027  -0.013   0.021  0.00  0.00    +0.000 C 
ATOM      6  C   UNL     1      -2.299  -2.787   0.855  0.00  0.00    +0.000 C 
ATOM      7  C   UNL     1      -1.220  -0.611   1.172  0.00  0.00    +0.000 C 
ATOM      8  C   UNL     1       0.183  -2.742   0.979  0.00  0.00    +0.000 C 
ENDROOT
BRANCH   8  10
ATOM      9  N   UNL     1       1.311  -1.016  -0.414  0.00  0.00    +0.000 N 
ATOM     10  C   UNL     1       1.359  -2.013   0.518  0.00  0.00    +0.000 A 
ATOM     11  C   UNL     1       2.665  -2.179   0.906  0.00  0.00    +0.000 A 
ATOM     12  C   UNL     1       3.450  -1.241   0.178  0.00  0.00    +0.000 A 
ATOM     13  C   UNL     1       2.576  -0.524  -0.642  0.00  0.00    +0.000 A 
ATOM     14  C   UNL     1       4.824  -0.932   0.139  0.00  0.00    +0.000 A 
ATOM     15  C   UNL     1       3.010   0.490  -1.503  0.00  0.00    +0.000 A 
ATOM     16  C   UNL     1       5.272   0.080  -0.718  0.00  0.00    +0.000 A 
ATOM     17  C   UNL     1       4.377   0.779  -1.525  0.00  0.00    +0.000 A 
ATOM     18  H   UNL     1       0.488  -0.712  -0.910  0.00  0.00    +0.000 HD
BRANCH  16  19
ATOM     19  N   UNL     1       6.664   0.400  -0.762  0.00  0.00    +0.000 N 
ATOM     20  H   UNL     1       7.282  -0.399  -0.567  0.00  0.00    +0.000 HD
BRANCH  19  21
ATOM     21  S   UNL     1       7.175   1.901  -0.090  0.00  0.00    +0.000 S 
ATOM     22  O   UNL     1       8.556   2.128  -0.474  0.00  0.00    +0.000 OA
ATOM     23  O   UNL     1       6.174   2.929  -0.296  0.00  0.00    +0.000 OA
ATOM     24  C   UNL     1       7.182   1.484   1.639  0.00  0.00    +0.000 C 
ENDBRANCH  19  21
ENDBRANCH  16  19
ENDBRANCH   8  10
BRANCH   2  26
ATOM     25  N   UNL     1      -4.837  -0.720  -1.988  0.00  0.00    +0.000 NA
ATOM     26  C   UNL     1      -4.351  -0.162  -0.830  0.00  0.00    +0.000 A 
ATOM     27  C   UNL     1      -4.927   1.009  -0.300  0.00  0.00    +0.000 A 
ATOM     28  C   UNL     1      -5.997   1.605  -0.958  0.00  0.00    +0.000 A 
ATOM     29  C   UNL     1      -5.879  -0.113  -2.598  0.00  0.00    +0.000 A 
ATOM     30  C   UNL     1      -6.489   1.039  -2.129  0.00  0.00    +0.000 A 
BRANCH  27  31
ATOM     31  N   UNL     1      -4.428   1.580   0.885  0.00  0.00    +0.000 N 
ATOM     32  H   UNL     1      -3.861   0.979   1.474  0.00  0.00    +0.000 HD
BRANCH  31  33
ATOM     33  C   UNL     1      -4.974   2.768   1.468  0.00  0.00    +0.000 C 
ATOM     34  C   UNL     1      -6.251   2.424   2.224  0.00  0.00    +0.000 C 
ATOM     35  C   UNL     1      -3.937   3.398   2.389  0.00  0.00    +0.000 C 
ENDBRANCH  31  33
ENDBRANCH  27  31
ENDBRANCH   2  26
TORSDOF 6
