REMARK  Name = 5401
REMARK  5 active torsions:
REMARK  status: ('A' for Active; 'I' for Inactive)
REMARK    1  A    between atoms: O_3  and  C_25
REMARK    2  A    between atoms: O_3  and  C_27
REMARK    3  A    between atoms: O_4  and  C_26
REMARK    4  A    between atoms: O_4  and  C_28
REMARK    5  A    between atoms: C_10  and  C_16
REMARK                            x       y       z     vdW  Elec       q    Type
REMARK                         _______ _______ _______ _____ _____    ______ ____
ROOT
ATOM      1  O   UNL     1       5.805   1.246   0.628  0.00  0.00    +0.000 OA
ATOM      2  N   UNL     1       3.698   0.387   0.156  0.00  0.00    +0.000 N 
ATOM      3  N   UNL     1       0.812   0.602   0.145  0.00  0.00    +0.000 N 
ATOM      4  N   UNL     1      -1.315  -0.430   0.067  0.00  0.00    +0.000 NA
ATOM      5  N   UNL     1      -1.112   1.971   0.102  0.00  0.00    +0.000 NA
ATOM      6  N   UNL     1      -3.026   3.339   0.058  0.00  0.00    +0.000 N 
ATOM      7  C   UNL     1       2.854  -0.631  -0.473  0.00  0.00    +0.000 C 
ATOM      8  C   UNL     1       3.005   1.455   0.870  0.00  0.00    +0.000 C 
ATOM      9  C   UNL     1       1.460  -0.712   0.150  0.00  0.00    +0.000 C 
ATOM     10  C   UNL     1       1.662   1.793   0.227  0.00  0.00    +0.000 C 
ATOM     11  C   UNL     1       5.093   0.390   0.099  0.00  0.00    +0.000 C 
ATOM     12  C   UNL     1      -0.575   0.720   0.103  0.00  0.00    +0.000 A 
ATOM     13  C   UNL     1      -2.655  -0.323   0.026  0.00  0.00    +0.000 A 
ATOM     14  C   UNL     1      -3.291   0.929   0.021  0.00  0.00    +0.000 A 
ATOM     15  C   UNL     1      -2.456   2.042   0.060  0.00  0.00    +0.000 A 
ATOM     16  C   UNL     1      -3.458  -1.460  -0.012  0.00  0.00    +0.000 A 
ATOM     17  C   UNL     1      -4.693   1.028  -0.022  0.00  0.00    +0.000 A 
ATOM     18  C   UNL     1      -4.853  -1.371  -0.055  0.00  0.00    +0.000 A 
ATOM     19  C   UNL     1      -5.471  -0.125  -0.060  0.00  0.00    +0.000 A 
ATOM     20  H   UNL     1      -2.368   4.108   0.116  0.00  0.00    +0.000 HD
ATOM     21  H   UNL     1      -3.857   3.500  -0.497  0.00  0.00    +0.000 HD
ENDROOT
BRANCH  11  23
ATOM     22  O   UNL     1       6.927  -0.215  -1.230  0.00  0.00    +0.000 OA
ATOM     23  C   UNL     1       5.726  -0.738  -0.655  0.00  0.00    +0.000 C 
ATOM     24  C   UNL     1       6.119  -1.891   0.248  0.00  0.00    +0.000 C 
ATOM     25  C   UNL     1       7.542  -1.547   0.619  0.00  0.00    +0.000 C 
ATOM     26  C   UNL     1       8.047  -0.894  -0.648  0.00  0.00    +0.000 C 
ENDBRANCH  11  23
BRANCH  18  27
ATOM     27  O   UNL     1      -5.595  -2.513  -0.092  0.00  0.00    +0.000 OA
ATOM     28  C   UNL     1      -5.987  -3.071   1.160  0.00  0.00    +0.000 C 
ENDBRANCH  18  27
BRANCH  19  29
ATOM     29  O   UNL     1      -6.828  -0.022  -0.101  0.00  0.00    +0.000 OA
ATOM     30  C   UNL     1      -7.435   0.041  -1.390  0.00  0.00    +0.000 C 
ENDBRANCH  19  29
TORSDOF 3
