REMARK  Name = 11696113
REMARK  4 active torsions:
REMARK  status: ('A' for Active; 'I' for Inactive)
REMARK    1  A    between atoms: N_3  and  C_13
REMARK    2  A    between atoms: C_7  and  C_10
REMARK    3  A    between atoms: C_7  and  C_13
REMARK    4  A    between atoms: C_10  and  C_14
REMARK                            x       y       z     vdW  Elec       q    Type
REMARK                         _______ _______ _______ _____ _____    ______ ____
ROOT
ATOM      1  N   UNL     1      -1.617  -0.651  -0.070  0.00  0.00    +0.000 N 
ATOM      2  N   UNL     1      -3.743  -1.531   0.620  0.00  0.00    +0.000 NA
ATOM      3  N   UNL     1      -5.420   2.075  -0.090  0.00  0.00    +0.000 N 
ATOM      4  N   UNL     1      -5.777  -0.193   0.645  0.00  0.00    +0.000 NA
ATOM      5  C   UNL     1       1.251  -1.085  -0.485  0.00  0.00    +0.000 C 
ATOM      6  C   UNL     1       0.170  -1.892  -1.232  0.00  0.00    +0.000 C 
ATOM      7  C   UNL     1       0.662   0.288  -0.103  0.00  0.00    +0.000 C 
ATOM      8  C   UNL     1      -1.151  -1.986  -0.467  0.00  0.00    +0.000 C 
ATOM      9  C   UNL     1      -0.662   0.189   0.658  0.00  0.00    +0.000 C 
ATOM     10  C   UNL     1      -2.989  -0.490   0.162  0.00  0.00    +0.000 A 
ATOM     11  C   UNL     1      -3.633   0.739  -0.065  0.00  0.00    +0.000 A 
ATOM     12  C   UNL     1      -4.997   0.804   0.194  0.00  0.00    +0.000 A 
ATOM     13  C   UNL     1      -3.237   2.022  -0.521  0.00  0.00    +0.000 A 
ATOM     14  C   UNL     1      -5.062  -1.322   0.829  0.00  0.00    +0.000 A 
ATOM     15  C   UNL     1      -4.358   2.825  -0.527  0.00  0.00    +0.000 A 
ATOM     16  H   UNL     1      -6.370   2.408   0.005  0.00  0.00    +0.000 HD
ENDROOT
BRANCH   5  17
ATOM     17  C   UNL     1       2.459  -0.875  -1.417  0.00  0.00    +0.000 C 
BRANCH  17  19
ATOM     18 CL   UNL     1       6.787   2.255   1.320  0.00  0.00    +0.000 Cl
ATOM     19  C   UNL     1       3.540  -0.093  -0.734  0.00  0.00    +0.000 A 
ATOM     20  C   UNL     1       3.548   1.295  -0.821  0.00  0.00    +0.000 A 
ATOM     21  C   UNL     1       4.527  -0.762  -0.018  0.00  0.00    +0.000 A 
ATOM     22  C   UNL     1       4.554   2.022  -0.186  0.00  0.00    +0.000 A 
ATOM     23  C   UNL     1       5.533  -0.035   0.618  0.00  0.00    +0.000 A 
ATOM     24  C   UNL     1       5.547   1.358   0.534  0.00  0.00    +0.000 A 
ENDBRANCH  17  19
ENDBRANCH   5  17
BRANCH   5  25
ATOM     25  C   UNL     1       1.739  -1.841   0.765  0.00  0.00    +0.000 C 
BRANCH  25  26
ATOM     26  N   UNL     1       2.328  -3.112   0.389  0.00  0.00    +0.000 NA
ATOM     27  H   UNL     1       2.706  -3.572   1.216  0.00  0.00    +0.000 HD
ATOM     28  H   UNL     1       3.091  -3.033  -0.271  0.00  0.00    +0.000 HD
ENDBRANCH  25  26
ENDBRANCH   5  25
TORSDOF 4
