REMARK  Name = 60848
REMARK  7 active torsions:
REMARK  status: ('A' for Active; 'I' for Inactive)
REMARK    1  A    between atoms: O_2  and  C_25
REMARK    2  A    between atoms: O_2  and  C_28
REMARK    3  A    between atoms: N_3  and  C_12
REMARK    4  A    between atoms: N_7  and  C_15
REMARK    5  A    between atoms: N_7  and  C_24
REMARK    6  A    between atoms: C_13  and  C_14
REMARK    7  A    between atoms: C_24  and  C_27
REMARK                            x       y       z     vdW  Elec       q    Type
REMARK                         _______ _______ _______ _____ _____    ______ ____
ROOT
ATOM      1  O   UNL     1       1.020  -3.601   0.625  0.00  0.00    +0.000 OA
ATOM      2  N   UNL     1      -2.828  -0.682  -0.035  0.00  0.00    +0.000 N 
ATOM      3  N   UNL     1      -0.331  -1.727   0.757  0.00  0.00    +0.000 N 
ATOM      4  C   UNL     1      -2.634  -2.141   0.010  0.00  0.00    +0.000 C 
ATOM      5  C   UNL     1      -1.616   0.127  -0.223  0.00  0.00    +0.000 C 
ATOM      6  C   UNL     1      -1.540  -2.505   1.013  0.00  0.00    +0.000 C 
ATOM      7  C   UNL     1      -0.547  -0.278   0.790  0.00  0.00    +0.000 C 
ATOM      8  C   UNL     1       0.903  -2.375   0.577  0.00  0.00    +0.000 C 
ENDROOT
BRANCH   8  10
ATOM      9  N   UNL     1       2.869  -1.037   1.310  0.00  0.00    +0.000 N 
ATOM     10  C   UNL     1       2.068  -1.536   0.322  0.00  0.00    +0.000 A 
ATOM     11  C   UNL     1       2.558  -1.109  -0.886  0.00  0.00    +0.000 A 
ATOM     12  C   UNL     1       3.709  -0.314  -0.626  0.00  0.00    +0.000 A 
ATOM     13  C   UNL     1       3.882  -0.285   0.760  0.00  0.00    +0.000 A 
ATOM     14  C   UNL     1       4.624   0.386  -1.438  0.00  0.00    +0.000 A 
ATOM     15  C   UNL     1       4.928   0.411   1.376  0.00  0.00    +0.000 A 
ATOM     16  C   UNL     1       5.675   1.087  -0.835  0.00  0.00    +0.000 A 
ATOM     17  C   UNL     1       5.822   1.098   0.550  0.00  0.00    +0.000 A 
ATOM     18  H   UNL     1       2.739  -1.193   2.301  0.00  0.00    +0.000 HD
BRANCH  16  19
ATOM     19  O   UNL     1       6.563   1.766  -1.615  0.00  0.00    +0.000 OA
ATOM     20  C   UNL     1       7.612   2.462  -0.945  0.00  0.00    +0.000 C 
ENDBRANCH  16  19
ENDBRANCH   8  10
BRANCH   2  22
ATOM     21  N   UNL     1      -4.749  -0.939  -1.442  0.00  0.00    +0.000 NA
ATOM     22  C   UNL     1      -4.056  -0.206  -0.509  0.00  0.00    +0.000 A 
ATOM     23  C   UNL     1      -4.570   1.015  -0.030  0.00  0.00    +0.000 A 
ATOM     24  C   UNL     1      -5.791   1.480  -0.506  0.00  0.00    +0.000 A 
ATOM     25  C   UNL     1      -5.932  -0.454  -1.882  0.00  0.00    +0.000 A 
ATOM     26  C   UNL     1      -6.491   0.738  -1.450  0.00  0.00    +0.000 A 
BRANCH  23  27
ATOM     27  N   UNL     1      -3.859   1.765   0.926  0.00  0.00    +0.000 N 
ATOM     28  H   UNL     1      -3.139   1.290   1.457  0.00  0.00    +0.000 HD
BRANCH  27  29
ATOM     29  C   UNL     1      -4.087   3.162   1.147  0.00  0.00    +0.000 C 
ATOM     30  C   UNL     1      -3.200   3.693   2.260  0.00  0.00    +0.000 C 
ENDBRANCH  27  29
ENDBRANCH  23  27
ENDBRANCH   2  22
TORSDOF 5
