REMARK  Name = 121596701
REMARK  5 active torsions:
REMARK  status: ('A' for Active; 'I' for Inactive)
REMARK    1  A    between atoms: S_1  and  C_10
REMARK    2  A    between atoms: S_1  and  C_14
REMARK    3  A    between atoms: C_10  and  C_13
REMARK    4  A    between atoms: C_17  and  C_21
REMARK    5  A    between atoms: C_18  and  C_23
REMARK                            x       y       z     vdW  Elec       q    Type
REMARK                         _______ _______ _______ _____ _____    ______ ____
ROOT
ATOM      1  O   UNL     1      -2.715   4.871  -0.152  0.00  0.00    +0.000 OA
ATOM      2  N   UNL     1       0.167  -1.430   0.216  0.00  0.00    +0.000 NA
ATOM      3  N   UNL     1      -1.564   2.314   0.052  0.00  0.00    +0.000 N 
ATOM      4  N   UNL     1       0.342   0.936  -0.208  0.00  0.00    +0.000 NA
ATOM      5  C   UNL     1      -1.135  -1.243   0.514  0.00  0.00    +0.000 A 
ATOM      6  C   UNL     1      -1.762  -0.014   0.474  0.00  0.00    +0.000 A 
ATOM      7  C   UNL     1      -0.966   1.050   0.103  0.00  0.00    +0.000 A 
ATOM      8  C   UNL     1       0.836  -0.314  -0.132  0.00  0.00    +0.000 A 
ATOM      9  C   UNL     1      -2.789   2.506  -0.751  0.00  0.00    +0.000 C 
ATOM     10  C   UNL     1      -0.760   3.513   0.322  0.00  0.00    +0.000 C 
ATOM     11  C   UNL     1      -3.558   3.721  -0.220  0.00  0.00    +0.000 C 
ATOM     12  C   UNL     1      -1.657   4.657   0.780  0.00  0.00    +0.000 C 
ATOM     13  C   UNL     1      -2.430   2.680  -2.231  0.00  0.00    +0.000 C 
ENDROOT
BRANCH   8  16
ATOM     14  N   UNL     1       3.970  -1.469  -1.836  0.00  0.00    +0.000 NA
ATOM     15  N   UNL     1       5.321   0.764   0.774  0.00  0.00    +0.000 N 
ATOM     16  C   UNL     1       2.230  -0.474  -0.457  0.00  0.00    +0.000 A 
ATOM     17  C   UNL     1       3.221   0.196   0.273  0.00  0.00    +0.000 A 
ATOM     18  C   UNL     1       2.675  -1.286  -1.492  0.00  0.00    +0.000 A 
ATOM     19  C   UNL     1       4.558   0.006  -0.083  0.00  0.00    +0.000 A 
ATOM     20  C   UNL     1       3.209   1.095   1.376  0.00  0.00    +0.000 A 
ATOM     21  C   UNL     1       4.929  -0.823  -1.133  0.00  0.00    +0.000 A 
ATOM     22  C   UNL     1       4.514   1.426   1.661  0.00  0.00    +0.000 A 
ATOM     23  H   UNL     1       6.330   0.823   0.753  0.00  0.00    +0.000 HD
ENDBRANCH   8  16
BRANCH   5  24
ATOM     24  C   UNL     1      -1.926  -2.446   0.905  0.00  0.00    +0.000 C 
ATOM     25  C   UNL     1      -1.540  -3.258   2.100  0.00  0.00    +0.000 C 
ATOM     26  C   UNL     1      -2.790  -2.427   2.125  0.00  0.00    +0.000 C 
BRANCH  24  27
ATOM     27  S   UNL     1      -2.612  -3.438  -0.423  0.00  0.00    +0.000 S 
ATOM     28  O   UNL     1      -3.179  -4.657   0.169  0.00  0.00    +0.000 OA
ATOM     29  N   UNL     1      -3.405  -2.481  -1.366  0.00  0.00    +0.000 NA
ATOM     30  C   UNL     1      -1.185  -3.973  -1.359  0.00  0.00    +0.000 C 
ATOM     31  H   UNL     1      -3.528  -2.846  -2.315  0.00  0.00    +0.000 HD
ENDBRANCH  24  27
ENDBRANCH   5  24
TORSDOF 3
