REMARK  Name = 121293929
REMARK  7 active torsions:
REMARK  status: ('A' for Active; 'I' for Inactive)
REMARK    1  A    between atoms: N_4  and  C_13
REMARK    2  A    between atoms: N_5  and  C_8
REMARK    3  A    between atoms: C_16  and  C_21
REMARK    4  A    between atoms: C_18  and  C_23
REMARK    5  A    between atoms: C_19  and  C_24
REMARK    6  A    between atoms: C_22  and  C_25
REMARK    7  A    between atoms: C_26  and  C_27
REMARK                            x       y       z     vdW  Elec       q    Type
REMARK                         _______ _______ _______ _____ _____    ______ ____
ROOT
ATOM      1  F   UNL     1       1.450   3.155  -0.670  0.00  0.00    +0.000 F 
ATOM      2  N   UNL     1       2.562  -2.069   0.471  0.00  0.00    +0.000 N 
ATOM      3  C   UNL     1       0.847   1.038   0.222  0.00  0.00    +0.000 A 
ATOM      4  C   UNL     1       1.203  -0.300   0.484  0.00  0.00    +0.000 A 
ATOM      5  C   UNL     1       2.471  -0.745   0.105  0.00  0.00    +0.000 A 
ATOM      6  C   UNL     1       0.537  -1.402   1.091  0.00  0.00    +0.000 A 
ATOM      7  C   UNL     1       1.770   1.879  -0.410  0.00  0.00    +0.000 A 
ATOM      8  C   UNL     1       1.398  -2.475   1.067  0.00  0.00    +0.000 A 
ATOM      9  C   UNL     1       3.404   0.084  -0.527  0.00  0.00    +0.000 A 
ATOM     10  C   UNL     1       3.029   1.407  -0.778  0.00  0.00    +0.000 A 
ATOM     11  C   UNL     1      -0.831  -1.410   1.650  0.00  0.00    +0.000 C 
ATOM     12  C   UNL     1       1.237  -3.858   1.554  0.00  0.00    +0.000 C 
ATOM     13  H   UNL     1       3.372  -2.654   0.320  0.00  0.00    +0.000 HD
ENDROOT
BRANCH   3  14
ATOM     14  N   UNL     1      -0.406   1.553   0.572  0.00  0.00    +0.000 N 
ATOM     15  C   UNL     1      -2.736   2.014  -0.124  0.00  0.00    +0.000 C 
ATOM     16  C   UNL     1      -1.255   2.069  -0.514  0.00  0.00    +0.000 C 
ATOM     17  C   UNL     1      -2.982   2.673   1.234  0.00  0.00    +0.000 C 
ATOM     18  C   UNL     1      -0.594   2.165   1.891  0.00  0.00    +0.000 C 
ATOM     19  C   UNL     1      -2.062   2.098   2.308  0.00  0.00    +0.000 C 
BRANCH  15  21
ATOM     20  O   UNL     1      -3.834   0.535  -2.379  0.00  0.00    +0.000 OA
ATOM     21  N   UNL     1      -3.220   0.651  -0.135  0.00  0.00    +0.000 N 
ATOM     22  C   UNL     1      -3.725   0.039  -1.264  0.00  0.00    +0.000 C 
ATOM     23  H   UNL     1      -3.194   0.125   0.732  0.00  0.00    +0.000 HD
BRANCH  22  24
ATOM     24  C   UNL     1      -4.157  -1.326  -1.067  0.00  0.00    +0.000 C 
ATOM     25  C   UNL     1      -4.516  -2.461  -0.906  0.00  0.00    +0.000 C 
ATOM     26  C   UNL     1      -4.954  -3.842  -0.708  0.00  0.00    +0.000 C 
ENDBRANCH  22  24
ENDBRANCH  15  21
ENDBRANCH   3  14
BRANCH   9  29
ATOM     27  O   UNL     1       5.064  -1.576  -0.714  0.00  0.00    +0.000 OA
ATOM     28  N   UNL     1       5.582   0.500  -1.538  0.00  0.00    +0.000 N 
ATOM     29  C   UNL     1       4.718  -0.397  -0.914  0.00  0.00    +0.000 C 
ATOM     30  H   UNL     1       5.381   1.471  -1.742  0.00  0.00    +0.000 HD
ATOM     31  H   UNL     1       6.504   0.186  -1.824  0.00  0.00    +0.000 HD
ENDBRANCH   9  29
TORSDOF 4
