REMARK  Name = 72703790
REMARK  8 active torsions:
REMARK  status: ('A' for Active; 'I' for Inactive)
REMARK    1  A    between atoms: N_4  and  C_10
REMARK    2  A    between atoms: N_8  and  C_27
REMARK    3  A    between atoms: N_8  and  C_31
REMARK    4  A    between atoms: N_8  and  C_32
REMARK    5  A    between atoms: C_18  and  C_22
REMARK    6  A    between atoms: C_25  and  C_28
REMARK    7  A    between atoms: C_26  and  C_27
REMARK    8  A    between atoms: C_33  and  C_35
REMARK                            x       y       z     vdW  Elec       q    Type
REMARK                         _______ _______ _______ _____ _____    ______ ____
ROOT
ATOM      1 CL   UNL     1      -2.370   2.893   0.946  0.00  0.00    +0.000 Cl
ATOM      2  O   UNL     1       4.818   1.053  -0.772  0.00  0.00    +0.000 OA
ATOM      3  N   UNL     1       0.651   1.746   0.286  0.00  0.00    +0.000 N 
ATOM      4  N   UNL     1       2.460   2.844  -0.396  0.00  0.00    +0.000 NA
ATOM      5  N   UNL     1       2.644   0.473  -0.071  0.00  0.00    +0.000 N 
ATOM      6  C   UNL     1       0.267   3.059   0.184  0.00  0.00    +0.000 A 
ATOM      7  C   UNL     1       1.969   1.669  -0.071  0.00  0.00    +0.000 A 
ATOM      8  C   UNL     1       1.413   3.723  -0.243  0.00  0.00    +0.000 A 
ATOM      9  C   UNL     1      -0.949   3.702   0.422  0.00  0.00    +0.000 A 
ATOM     10  C   UNL     1       1.362   5.112  -0.450  0.00  0.00    +0.000 A 
ATOM     11  C   UNL     1      -0.981   5.084   0.211  0.00  0.00    +0.000 A 
ATOM     12  C   UNL     1       0.153   5.779  -0.217  0.00  0.00    +0.000 A 
ATOM     13  C   UNL     1       3.994   0.220  -0.409  0.00  0.00    +0.000 C 
ATOM     14  H   UNL     1       2.110  -0.329   0.222  0.00  0.00    +0.000 HD
ENDROOT
BRANCH   3  17
ATOM     15  O   UNL     1      -2.690   0.045  -1.854  0.00  0.00    +0.000 OA
ATOM     16  N   UNL     1      -1.559  -1.268  -0.290  0.00  0.00    +0.000 N 
ATOM     17  C   UNL     1      -0.210   0.567   0.717  0.00  0.00    +0.000 C 
ATOM     18  C   UNL     1       0.348  -0.035   2.019  0.00  0.00    +0.000 C 
ATOM     19  C   UNL     1      -0.335  -0.468  -0.416  0.00  0.00    +0.000 C 
ATOM     20  C   UNL     1      -0.476  -1.185   2.599  0.00  0.00    +0.000 C 
ATOM     21  C   UNL     1      -0.482  -2.431   1.716  0.00  0.00    +0.000 C 
ATOM     22  C   UNL     1      -1.564  -2.406   0.637  0.00  0.00    +0.000 C 
ATOM     23  C   UNL     1      -2.665  -0.904  -1.068  0.00  0.00    +0.000 C 
BRANCH  23  24
ATOM     24  C   UNL     1      -3.887  -1.725  -0.941  0.00  0.00    +0.000 C 
ATOM     25  C   UNL     1      -5.078  -1.146  -1.135  0.00  0.00    +0.000 C 
BRANCH  25  26
ATOM     26  C   UNL     1      -6.377  -1.887  -1.039  0.00  0.00    +0.000 C 
BRANCH  26  27
ATOM     27  N   UNL     1      -7.244  -1.320  -0.011  0.00  0.00    +0.000 NA
ATOM     28  C   UNL     1      -8.642  -1.664  -0.269  0.00  0.00    +0.000 C 
ATOM     29  C   UNL     1      -6.842  -1.788   1.316  0.00  0.00    +0.000 C 
ENDBRANCH  26  27
ENDBRANCH  25  26
ENDBRANCH  23  24
ENDBRANCH   3  17
BRANCH  13  31
ATOM     30  N   UNL     1       5.297  -3.843  -0.044  0.00  0.00    +0.000 NA
ATOM     31  C   UNL     1       4.446  -1.191  -0.283  0.00  0.00    +0.000 A 
ATOM     32  C   UNL     1       3.533  -2.231  -0.411  0.00  0.00    +0.000 A 
ATOM     33  C   UNL     1       5.785  -1.475  -0.035  0.00  0.00    +0.000 A 
ATOM     34  C   UNL     1       4.004  -3.528  -0.284  0.00  0.00    +0.000 A 
ATOM     35  C   UNL     1       6.155  -2.805   0.074  0.00  0.00    +0.000 A 
ATOM     36  C   UNL     1       3.052  -4.669  -0.417  0.00  0.00    +0.000 C 
ENDBRANCH  13  31
TORSDOF 5
