MODEL 1
REMARK VINA RESULT:  4949.189      0.000      0.000
REMARK INTER + INTRA:        4982.794
REMARK INTER:                4947.996
REMARK INTRA:                  34.798
REMARK CONF_INDEPENDENT:        1.193
REMARK UNBOUND:               -34.798
REMARK  Name = 
REMARK  6 active torsions:
REMARK  status: ('A' for Active; 'I' for Inactive)
REMARK    1  A    between atoms: C_1  and  C_2
REMARK    2  A    between atoms: C_15  and  C_16
REMARK    3  A    between atoms: C_20  and  C_21
REMARK    4  A    between atoms: C_21  and  C_23
REMARK    5  A    between atoms: C_23  and  N_24
REMARK    6  A    between atoms: N_27  and  C_28
REMARK                            x       y       z     vdW  Elec       q    Type
REMARK                         _______ _______ _______ _____ _____    ______ ____
ROOT
ATOM      1  C   UNL     1      -0.210  -0.272   1.432  0.00  0.00    +0.000 C 
ENDROOT
BRANCH   1   2
ATOM      2  N   UNL     1       0.972   0.357   1.823  0.00  0.00    +0.000 NA
ATOM      3  C   UNL     1       1.322   1.601   1.272  0.00  0.00    +0.000 C 
ATOM      4  C   UNL     1       1.566   2.574   2.421  0.00  0.00    +0.000 C 
ATOM      5  N   UNL     1       2.468   1.921   3.364  0.00  0.00    +0.000 N 
ATOM      6  C   UNL     1       2.110   0.616   3.902  0.00  0.00    +0.000 C 
ATOM      7  C   UNL     1       1.857  -0.282   2.704  0.00  0.00    +0.000 C 
BRANCH   5   8
ATOM      8  C   UNL     1       3.862   2.215   3.270  0.00  0.00    +0.000 A 
ATOM      9  C   UNL     1       4.703   1.365   3.973  0.00  0.00    +0.000 A 
ATOM     10  C   UNL     1       5.950   1.806   4.375  0.00  0.00    +0.000 A 
ATOM     11  N   UNL     1       6.968   0.839   4.677  0.00  0.00    +0.000 N 
ATOM     12  C   UNL     1       7.791   0.298   3.594  0.00  0.00    +0.000 C 
ATOM     13  C   UNL     1       9.000   1.226   3.597  0.00  0.00    +0.000 C 
ATOM     14  C   UNL     1       8.929   1.983   4.918  0.00  0.00    +0.000 C 
ATOM     15  C   UNL     1       7.951   1.131   5.720  0.00  0.00    +0.000 C 
ATOM     16  N   UNL     1       6.268   3.076   4.024  0.00  0.00    +0.000 NA
ATOM     17  C   UNL     1       5.577   3.792   3.123  0.00  0.00    +0.000 A 
ATOM     18  N   UNL     1       6.219   4.671   2.191  0.00  0.00    +0.000 N 
ATOM     19  C   UNL     1       7.191   4.209   1.204  0.00  0.00    +0.000 C 
ATOM     20  C   UNL     1       7.865   5.456   0.712  0.00  0.00    +0.000 C 
ATOM     21  C   UNL     1       6.752   6.472   0.793  0.00  0.00    +0.000 C 
ATOM     22  C   UNL     1       5.729   5.949   1.756  0.00  0.00    +0.000 C 
ATOM     23  N   UNL     1       4.270   3.464   2.974  0.00  0.00    +0.000 NA
ENDBRANCH   5   8
ENDBRANCH   1   2
BRANCH   1  24
ATOM     24  C   UNL     1      -1.160   0.576   0.639  0.00  0.00    +0.000 C 
ATOM     25  O   UNL     1      -0.712   1.533   0.009  0.00  0.00    +0.000 OA
BRANCH  24  45
ATOM     26  C   UNL     1      -0.407   2.502   2.134  0.00  0.00    +0.000 C 
ATOM     27  C   UNL     1      -1.760   2.550   1.770  0.00  0.00    +0.000 C 
ATOM     28  C   UNL     1      -2.257   3.383   0.688  0.00  0.00    +0.000 C 
ATOM     29  C   UNL     1      -2.138   4.790   1.203  0.00  0.00    +0.000 C 
ATOM     30  C   UNL     1      -2.515   5.023   2.443  0.00  0.00    +0.000 C 
ATOM     31  C   UNL     1      -1.866   4.119   3.588  0.00  0.00    +0.000 C 
ATOM     32  C   UNL     1      -3.005   4.427   4.712  0.00  0.00    +0.000 C 
ATOM     33  C   UNL     1      -4.337   4.421   4.024  0.00  0.00    +0.000 C 
ATOM     34  C   UNL     1      -4.562   5.682   3.229  0.00  0.00    +0.000 C 
ATOM     35  C   UNL     1      -5.421   5.539   2.217  0.00  0.00    +0.000 C 
ATOM     36  C   UNL     1      -5.258   6.146   0.917  0.00  0.00    +0.000 C 
ATOM     37  O   UNL     1      -5.891   5.811  -0.120  0.00  0.00    +0.000 OA
ATOM     38  C   UNL     1      -4.146   7.083   0.711  0.00  0.00    +0.000 C 
ATOM     39  C   UNL     1      -3.290   7.166   1.703  0.00  0.00    +0.000 C 
ATOM     40  C   UNL     1      -3.229   6.258   2.839  0.00  0.00    +0.000 C 
ATOM     41  C   UNL     1      -2.578   6.994   3.975  0.00  0.00    +0.000 C 
ATOM     42  C   UNL     1      -2.702   2.730   3.073  0.00  0.00    +0.000 C 
ATOM     43  C   UNL     1      -1.744   1.730   3.909  0.00  0.00    +0.000 C 
ATOM     44  C   UNL     1      -1.502   0.597   2.974  0.00  0.00    +0.000 C 
ATOM     45  C   UNL     1      -2.346   1.030   1.639  0.00  0.00    +0.000 C 
ENDBRANCH  24  45
ENDBRANCH   1  24
TORSDOF 4
ENDMDL
