REMARK  Name = 5282226
REMARK  19 active torsions:
REMARK  status: ('A' for Active; 'I' for Inactive)
REMARK    1  A    between atoms: O_4  and  C_12
REMARK    2  A    between atoms: O_5  and  C_13
REMARK    3  A    between atoms: O_6  and  C_19
REMARK    4  A    between atoms: O_7  and  C_22
REMARK    5  A    between atoms: O_7  and  C_25
REMARK    6  A    between atoms: O_8  and  C_26
REMARK    7  A    between atoms: O_8  and  C_29
REMARK    8  A    between atoms: C_10  and  C_15
REMARK    9  A    between atoms: C_11  and  C_16
REMARK   10  A    between atoms: C_15  and  C_17
REMARK   11  A    between atoms: C_18  and  C_19
REMARK   12  A    between atoms: C_19  and  C_22
REMARK   13  A    between atoms: C_20  and  C_21
REMARK   14  A    between atoms: C_21  and  C_23
REMARK   15  A    between atoms: C_23  and  C_24
REMARK   16  A    between atoms: C_24  and  C_26
REMARK   17  A    between atoms: C_29  and  C_33
REMARK   18  A    between atoms: C_29  and  C_34
REMARK   19  A    between atoms: C_30  and  C_35
REMARK                            x       y       z     vdW  Elec       q    Type
REMARK                         _______ _______ _______ _____ _____    ______ ____
ROOT
ATOM      1  C   UNL     1       3.314   1.012   0.554  0.00  0.00    +0.000 C 
ATOM      2  C   UNL     1       3.922  -0.169  -0.220  0.00  0.00    +0.000 C 
ATOM      3  C   UNL     1       4.555   1.702   1.128  0.00  0.00    +0.000 C 
ATOM      4  C   UNL     1       5.196   0.422  -0.851  0.00  0.00    +0.000 C 
ATOM      5  C   UNL     1       5.545   1.678  -0.036  0.00  0.00    +0.000 C 
ENDROOT
BRANCH   3   6
ATOM      6  O   UNL     1       5.095   1.010   2.248  0.00  0.00    +0.000 OA
ATOM      7  H   UNL     1       5.899   1.482   2.523  0.00  0.00    +0.000 HD
ENDBRANCH   3   6
BRANCH   4   8
ATOM      8  O   UNL     1       6.264  -0.514  -0.766  0.00  0.00    +0.000 OA
ATOM      9  H   UNL     1       7.051  -0.095  -1.154  0.00  0.00    +0.000 HD
ENDBRANCH   4   8
BRANCH   2  10
ATOM     10  C   UNL     1       3.002  -0.749  -1.247  0.00  0.00    +0.000 C 
ATOM     11  C   UNL     1       2.615  -2.033  -1.262  0.00  0.00    +0.000 C 
BRANCH  11  12
ATOM     12  C   UNL     1       1.690  -2.615  -2.295  0.00  0.00    +0.000 C 
BRANCH  12  13
ATOM     13  O   UNL     1       2.412  -3.622  -3.000  0.00  0.00    +0.000 OA
ATOM     14  H   UNL     1       3.163  -3.192  -3.443  0.00  0.00    +0.000 HD
ENDBRANCH  12  13
BRANCH  12  15
ATOM     15  C   UNL     1       0.455  -3.242  -1.655  0.00  0.00    +0.000 C 
BRANCH  15  16
ATOM     16  O   UNL     1      -0.482  -2.229  -1.319  0.00  0.00    +0.000 OA
BRANCH  16  17
ATOM     17  C   UNL     1      -1.302  -2.476  -0.248  0.00  0.00    +0.000 A 
ATOM     18  C   UNL     1      -1.770  -1.417   0.531  0.00  0.00    +0.000 A 
ATOM     19  C   UNL     1      -1.668  -3.785   0.064  0.00  0.00    +0.000 A 
ATOM     20  C   UNL     1      -2.604  -1.668   1.621  0.00  0.00    +0.000 A 
ATOM     21  C   UNL     1      -2.502  -4.037   1.153  0.00  0.00    +0.000 A 
ATOM     22  C   UNL     1      -2.970  -2.978   1.932  0.00  0.00    +0.000 A 
BRANCH  20  26
ATOM     23  F   UNL     1      -3.909  -0.930   3.485  0.00  0.00    +0.000 F 
ATOM     24  F   UNL     1      -2.109   0.194   3.038  0.00  0.00    +0.000 F 
ATOM     25  F   UNL     1      -3.842   0.358   1.734  0.00  0.00    +0.000 F 
ATOM     26  C   UNL     1      -3.104  -0.537   2.453  0.00  0.00    +0.000 C 
ENDBRANCH  20  26
ENDBRANCH  16  17
ENDBRANCH  15  16
ENDBRANCH  12  15
ENDBRANCH  11  12
ENDBRANCH   2  10
BRANCH   1  27
ATOM     27  C   UNL     1       2.309   0.588   1.615  0.00  0.00    +0.000 C 
BRANCH  27  28
ATOM     28  C   UNL     1       1.793   1.771   2.378  0.00  0.00    +0.000 C 
ATOM     29  C   UNL     1       0.730   2.496   2.000  0.00  0.00    +0.000 C 
BRANCH  29  30
ATOM     30  C   UNL     1      -0.073   2.212   0.764  0.00  0.00    +0.000 C 
BRANCH  30  31
ATOM     31  C   UNL     1      -0.081   3.380  -0.231  0.00  0.00    +0.000 C 
BRANCH  31  32
ATOM     32  C   UNL     1      -0.840   3.103  -1.531  0.00  0.00    +0.000 C 
BRANCH  32  34
ATOM     33  O   UNL     1      -2.955   3.252  -0.354  0.00  0.00    +0.000 OA
ATOM     34  C   UNL     1      -2.308   2.824  -1.300  0.00  0.00    +0.000 C 
BRANCH  34  35
ATOM     35  O   UNL     1      -2.790   2.056  -2.320  0.00  0.00    +0.000 OA
BRANCH  35  36
ATOM     36  C   UNL     1      -4.184   1.739  -2.247  0.00  0.00    +0.000 C 
ATOM     37  C   UNL     1      -4.421   0.376  -2.878  0.00  0.00    +0.000 C 
ATOM     38  C   UNL     1      -4.983   2.832  -2.941  0.00  0.00    +0.000 C 
ENDBRANCH  35  36
ENDBRANCH  34  35
ENDBRANCH  32  34
ENDBRANCH  31  32
ENDBRANCH  30  31
ENDBRANCH  29  30
ENDBRANCH  27  28
ENDBRANCH   1  27
TORSDOF 17
