REMARK  Name = 
REMARK  19 active torsions:
REMARK  status: ('A' for Active; 'I' for Inactive)
REMARK    1  A    between atoms: C_1  and  O_2
REMARK    2  A    between atoms: O_2  and  C_3
REMARK    3  A    between atoms: C_5  and  C_6
REMARK    4  A    between atoms: C_6  and  C_7
REMARK    5  A    between atoms: C_7  and  C_8
REMARK    6  A    between atoms: C_7  and  C_9
REMARK    7  A    between atoms: C_13  and  C_14
REMARK    8  A    between atoms: C_16  and  C_17
REMARK    9  A    between atoms: C_18  and  O_19
REMARK   10  A    between atoms: C_20  and  O_21
REMARK   11  A    between atoms: O_21  and  C_22
REMARK   12  A    between atoms: C_25  and  C_26
REMARK   13  A    between atoms: C_28  and  C_29
REMARK   14  A    between atoms: C_35  and  C_36
REMARK   15  A    between atoms: C_37  and  O_38
REMARK   16  A    between atoms: O_38  and  C_39
REMARK   17  A    between atoms: C_44  and  C_45
REMARK   18  A    between atoms: C_46  and  O_47
REMARK   19  A    between atoms: C_64  and  O_65
REMARK                            x       y       z     vdW  Elec       q    Type
REMARK                         _______ _______ _______ _____ _____    ______ ____
ROOT
ATOM      1  C   UNL     1       3.588   0.332  -1.084  0.00  0.00    +0.000 C 
ATOM      2  C   UNL     1       2.828   1.488  -1.949  0.00  0.00    +0.000 C 
ATOM      3  C   UNL     1       1.395   1.402  -1.859  0.00  0.00    +0.000 C 
ATOM      4  O   UNL     1       0.775   0.655  -2.615  0.00  0.00    +0.000 OA
ATOM      5  C   UNL     1       0.848   2.874  -2.285  0.00  0.00    +0.000 C 
ATOM      6  C   UNL     1       1.464   3.597  -0.950  0.00  0.00    +0.000 C 
ATOM      7  C   UNL     1      -0.613   2.659  -1.689  0.00  0.00    +0.000 C 
ATOM      8  C   UNL     1      -1.308   3.132  -0.842  0.00  0.00    +0.000 C 
ATOM      9  C   UNL     1      -1.918   2.236   0.219  0.00  0.00    +0.000 C 
ATOM     10  C   UNL     1      -1.647   4.667  -0.499  0.00  0.00    +0.000 C 
ATOM     11  C   UNL     1      -3.254   4.770  -1.173  0.00  0.00    +0.000 C 
ATOM     12  C   UNL     1      -3.929   3.953   0.041  0.00  0.00    +0.000 C 
ATOM     13  O   UNL     1      -3.895   4.408   1.095  0.00  0.00    +0.000 OA
ATOM     14  C   UNL     1      -5.030   2.908  -0.461  0.00  0.00    +0.000 C 
ATOM     15  C   UNL     1      -5.818   4.013  -1.381  0.00  0.00    +0.000 C 
ATOM     16  C   UNL     1      -6.035   3.147   0.794  0.00  0.00    +0.000 C 
ATOM     17  C   UNL     1      -6.289   1.669   1.436  0.00  0.00    +0.000 C 
ATOM     18  C   UNL     1      -5.191   1.941   2.623  0.00  0.00    +0.000 C 
ATOM     19  C   UNL     1      -5.222   0.834   0.573  0.00  0.00    +0.000 C 
ATOM     20  C   UNL     1      -5.746  -0.054  -0.263  0.00  0.00    +0.000 C 
ATOM     21  C   UNL     1      -5.632  -1.440   0.222  0.00  0.00    +0.000 C 
ATOM     22  C   UNL     1      -6.386  -1.665   1.270  0.00  0.00    +0.000 C 
ATOM     23  C   UNL     1      -5.496  -1.945   2.412  0.00  0.00    +0.000 C 
ATOM     24  C   UNL     1      -4.756  -3.063   2.459  0.00  0.00    +0.000 C 
ATOM     25  C   UNL     1      -5.181  -3.822   3.688  0.00  0.00    +0.000 C 
ATOM     26  C   UNL     1      -3.188  -2.624   2.375  0.00  0.00    +0.000 C 
ATOM     27  C   UNL     1      -2.756  -3.923   1.428  0.00  0.00    +0.000 C 
ATOM     28  C   UNL     1      -1.625  -3.129   0.522  0.00  0.00    +0.000 C 
ATOM     29  C   UNL     1      -2.579  -3.280  -0.813  0.00  0.00    +0.000 C 
ATOM     30  C   UNL     1      -1.815  -3.022  -2.029  0.00  0.00    +0.000 C 
ATOM     31  C   UNL     1      -0.929  -4.403  -1.981  0.00  0.00    +0.000 C 
ATOM     32  C   UNL     1      -0.025  -3.946  -3.254  0.00  0.00    +0.000 C 
ATOM     33  C   UNL     1       0.115  -3.946  -0.764  0.00  0.00    +0.000 C 
ATOM     34  O   UNL     1      -0.782  -4.372   0.246  0.00  0.00    +0.000 OA
ATOM     35  C   UNL     1       1.236  -4.721  -1.070  0.00  0.00    +0.000 C 
ATOM     36  O   UNL     1       1.067  -6.000  -1.065  0.00  0.00    +0.000 OA
ATOM     37  C   UNL     1       2.252  -4.059  -1.904  0.00  0.00    +0.000 C 
ATOM     38  O   UNL     1       2.887  -4.773  -2.740  0.00  0.00    +0.000 OA
ATOM     39  N   UNL     1       2.321  -2.602  -1.893  0.00  0.00    +0.000 N 
ATOM     40  C   UNL     1       3.418  -2.215  -2.725  0.00  0.00    +0.000 C 
ATOM     41  C   UNL     1       4.681  -3.005  -2.447  0.00  0.00    +0.000 C 
ATOM     42  C   UNL     1       4.691  -3.091  -0.923  0.00  0.00    +0.000 C 
ATOM     43  C   UNL     1       3.913  -2.018  -0.327  0.00  0.00    +0.000 C 
ATOM     44  C   UNL     1       2.327  -2.385  -0.321  0.00  0.00    +0.000 C 
ATOM     45  C   UNL     1       1.818  -0.852  -0.195  0.00  0.00    +0.000 C 
ATOM     46  O   UNL     1       1.174  -0.885   0.929  0.00  0.00    +0.000 OA
ATOM     47  O   UNL     1       2.508   0.225  -0.037  0.00  0.00    +0.000 OA
ENDROOT
BRANCH   1  48
ATOM     48  C   UNL     1       4.437   1.484  -0.145  0.00  0.00    +0.000 C 
ATOM     49  C   UNL     1       5.088   2.192  -1.439  0.00  0.00    +0.000 C 
BRANCH  48  50
ATOM     50  C   UNL     1       5.747   0.579   0.102  0.00  0.00    +0.000 C 
BRANCH  50  53
ATOM     51  C   UNL     1       6.144   3.126   2.795  0.00  0.00    +0.000 C 
ATOM     52  C   UNL     1       6.323   2.275   1.434  0.00  0.00    +0.000 C 
ATOM     53  C   UNL     1       6.048   0.716   1.714  0.00  0.00    +0.000 C 
ATOM     54  C   UNL     1       4.476   0.808   2.160  0.00  0.00    +0.000 C 
ATOM     55  C   UNL     1       4.567   1.476   3.483  0.00  0.00    +0.000 C 
ATOM     56  C   UNL     1       4.426   2.969   2.821  0.00  0.00    +0.000 C 
BRANCH  51  58
ATOM     57  C   UNL     1       6.994   4.338   1.112  0.00  0.00    +0.000 C 
ATOM     58  O   UNL     1       6.026   4.375   1.938  0.00  0.00    +0.000 OA
ENDBRANCH  51  58
BRANCH  56  59
ATOM     59  O   UNL     1       4.311   3.616   4.179  0.00  0.00    +0.000 OA
ATOM     60  H   UNL     1       4.984   3.246   4.771  0.00  0.00    +0.000 HD
ENDBRANCH  56  59
ENDBRANCH  50  53
ENDBRANCH  48  50
ENDBRANCH   1  48
BRANCH  10  61
ATOM     61  O   UNL     1      -1.056   5.197  -1.792  0.00  0.00    +0.000 OA
ATOM     62  H   UNL     1      -1.413   4.693  -2.541  0.00  0.00    +0.000 HD
ENDBRANCH  10  61
BRANCH  11  63
ATOM     63  O   UNL     1      -3.114   3.576  -2.087  0.00  0.00    +0.000 OA
ATOM     64  C   UNL     1      -3.167   4.134  -3.369  0.00  0.00    +0.000 C 
ENDBRANCH  11  63
BRANCH  26  65
ATOM     65  O   UNL     1      -2.727  -3.283   3.671  0.00  0.00    +0.000 OA
ATOM     66  C   UNL     1      -2.657  -4.586   3.551  0.00  0.00    +0.000 C 
ENDBRANCH  26  65
BRANCH  33  67
ATOM     67  O   UNL     1      -0.129  -2.661  -0.919  0.00  0.00    +0.000 OA
ATOM     68  H   UNL     1      -1.021  -2.459  -0.594  0.00  0.00    +0.000 HD
ENDBRANCH  33  67
TORSDOF 9
