REMARK  Name = 11876263
REMARK  10 active torsions:
REMARK  status: ('A' for Active; 'I' for Inactive)
REMARK    1  A    between atoms: O_2  and  C_25
REMARK    2  A    between atoms: O_2  and  C_26
REMARK    3  A    between atoms: C_6  and  C_16
REMARK    4  A    between atoms: C_9  and  C_20
REMARK    5  A    between atoms: C_10  and  C_21
REMARK    6  A    between atoms: C_21  and  C_25
REMARK    7  A    between atoms: C_26  and  C_27
REMARK    8  A    between atoms: C_27  and  C_28
REMARK    9  A    between atoms: C_27  and  C_29
REMARK   10  A    between atoms: C_27  and  C_30
REMARK                            x       y       z     vdW  Elec       q    Type
REMARK                         _______ _______ _______ _____ _____    ______ ____
ROOT
ATOM      1  O   UNL     1      -7.613  -1.901   0.987  0.00  0.00    +0.000 OA
ATOM      2  C   UNL     1      -0.875   1.659   0.442  0.00  0.00    +0.000 C 
ATOM      3  C   UNL     1       0.313   0.845  -0.115  0.00  0.00    +0.000 C 
ATOM      4  C   UNL     1      -2.213   1.276  -0.198  0.00  0.00    +0.000 C 
ATOM      5  C   UNL     1      -2.486  -0.236   0.074  0.00  0.00    +0.000 C 
ATOM      6  C   UNL     1      -3.868  -0.724  -0.510  0.00  0.00    +0.000 C 
ATOM      7  C   UNL     1       1.463   1.508   0.675  0.00  0.00    +0.000 C 
ATOM      8  C   UNL     1       0.067  -0.631   0.223  0.00  0.00    +0.000 C 
ATOM      9  C   UNL     1      -1.280  -1.125  -0.336  0.00  0.00    +0.000 C 
ATOM     10  C   UNL     1      -0.391   3.102   0.342  0.00  0.00    +0.000 C 
ATOM     11  C   UNL     1       1.109   3.010   0.673  0.00  0.00    +0.000 C 
ATOM     12  C   UNL     1      -3.363   2.127   0.358  0.00  0.00    +0.000 C 
ATOM     13  C   UNL     1       0.523   1.005  -1.644  0.00  0.00    +0.000 C 
ATOM     14  C   UNL     1      -4.977   0.245  -0.080  0.00  0.00    +0.000 C 
ATOM     15  C   UNL     1      -4.696   1.719  -0.257  0.00  0.00    +0.000 C 
ATOM     16  C   UNL     1      -4.160  -2.147   0.048  0.00  0.00    +0.000 C 
ATOM     17  C   UNL     1      -3.853  -0.785  -2.054  0.00  0.00    +0.000 C 
ATOM     18  C   UNL     1      -5.606  -2.585  -0.123  0.00  0.00    +0.000 C 
ATOM     19  C   UNL     1      -6.165  -0.143   0.412  0.00  0.00    +0.000 C 
ATOM     20  C   UNL     1      -6.536  -1.575   0.492  0.00  0.00    +0.000 C 
ENDROOT
BRANCH   7  22
ATOM     21  O   UNL     1       3.315   1.962  -0.750  0.00  0.00    +0.000 OA
ATOM     22  C   UNL     1       2.828   1.242   0.120  0.00  0.00    +0.000 C 
BRANCH  22  23
ATOM     23  C   UNL     1       3.562   0.047   0.690  0.00  0.00    +0.000 C 
BRANCH  23  24
ATOM     24  O   UNL     1       4.836  -0.085   0.095  0.00  0.00    +0.000 OA
BRANCH  24  26
ATOM     25  O   UNL     1       5.257  -1.946   1.380  0.00  0.00    +0.000 OA
ATOM     26  C   UNL     1       5.607  -1.138   0.528  0.00  0.00    +0.000 C 
BRANCH  26  27
ATOM     27  C   UNL     1       6.959  -1.168  -0.191  0.00  0.00    +0.000 C 
ATOM     28  C   UNL     1       7.716   0.138   0.085  0.00  0.00    +0.000 C 
ATOM     29  C   UNL     1       7.793  -2.349   0.333  0.00  0.00    +0.000 C 
ATOM     30  C   UNL     1       6.734  -1.348  -1.698  0.00  0.00    +0.000 C 
ENDBRANCH  26  27
ENDBRANCH  24  26
ENDBRANCH  23  24
ENDBRANCH  22  23
ENDBRANCH   7  22
TORSDOF 5
