REMARK  Name = 
REMARK  25 active torsions:
REMARK  status: ('A' for Active; 'I' for Inactive)
REMARK    1  A    between atoms: C_1  and  C_2
REMARK    2  A    between atoms: C_2  and  O_4
REMARK    3  A    between atoms: O_4  and  C_5
REMARK    4  A    between atoms: C_10  and  O_11
REMARK    5  A    between atoms: C_12  and  C_13
REMARK    6  A    between atoms: C_16  and  O_17
REMARK    7  A    between atoms: C_19  and  C_20
REMARK    8  A    between atoms: C_21  and  O_22
REMARK    9  A    between atoms: O_22  and  C_23
REMARK   10  A    between atoms: C_23  and  C_25
REMARK   11  A    between atoms: C_25  and  O_26
REMARK   12  A    between atoms: C_25  and  C_27
REMARK   13  A    between atoms: C_27  and  N_28
REMARK   14  A    between atoms: C_27  and  C_36
REMARK   15  A    between atoms: C_29  and  O_31
REMARK   16  A    between atoms: O_31  and  C_32
REMARK   17  A    between atoms: C_32  and  C_33
REMARK   18  A    between atoms: C_32  and  C_34
REMARK   19  A    between atoms: C_32  and  C_35
REMARK   20  A    between atoms: C_43  and  O_44
REMARK   21  A    between atoms: C_45  and  O_46
REMARK   22  A    between atoms: O_46  and  C_47
REMARK   23  A    between atoms: C_47  and  C_49
REMARK   24  A    between atoms: C_56  and  C_57
REMARK   25  A    between atoms: C_56  and  C_58
REMARK                            x       y       z     vdW  Elec       q    Type
REMARK                         _______ _______ _______ _____ _____    ______ ____
ROOT
ATOM      1  C   UNL     1       5.088  -1.456   0.000  0.00  0.00    +0.000 C 
ATOM      2  C   UNL     1       4.834  -2.934   0.000  0.00  0.00    +0.000 C 
ATOM      3  O   UNL     1       6.312  -3.188   0.000  0.00  0.00    +0.000 OA
ATOM      4  C   UNL     1       6.566  -1.710   0.000  0.00  0.00    +0.000 C 
ATOM      5  C   UNL     1       7.525  -0.557   0.000  0.00  0.00    +0.000 C 
ATOM      6  C   UNL     1       7.006   0.850   0.000  0.00  0.00    +0.000 C 
ATOM      7  C   UNL     1       5.528   1.104   0.000  0.00  0.00    +0.000 C 
ATOM      8  C   UNL     1       6.629   2.123   0.000  0.00  0.00    +0.000 C 
ATOM      9  C   UNL     1       5.391   2.598   0.000  0.00  0.00    +0.000 C 
ATOM     10  O   UNL     1       6.718   3.296   0.000  0.00  0.00    +0.000 OA
ATOM     11  C   UNL     1       4.237   3.557   0.000  0.00  0.00    +0.000 C 
ATOM     12  C   UNL     1       2.744   3.420   0.000  0.00  0.00    +0.000 C 
ATOM     13  C   UNL     1       1.260   3.699   0.000  0.00  0.00    +0.000 C 
ATOM     14  C   UNL     1       0.928   5.162   0.000  0.00  0.00    +0.000 C 
ATOM     15  C   UNL     1       0.158   2.681   0.000  0.00  0.00    +0.000 C 
ATOM     16  C   UNL     1       0.489   1.218   0.000  0.00  0.00    +0.000 C 
ATOM     17  C   UNL     1       1.922   0.773   0.000  0.00  0.00    +0.000 C 
ATOM     18  C   UNL     1       3.075  -0.186   0.000  0.00  0.00    +0.000 C 
ATOM     19  C   UNL     1       4.569  -0.049   0.000  0.00  0.00    +0.000 C 
ATOM     20  C   UNL     1       1.784   2.267   0.000  0.00  0.00    +0.000 C 
ATOM     21  C   UNL     1       0.698   2.148   0.000  0.00  0.00    +0.000 C 
ATOM     22  C   UNL     1       0.648   3.246   0.000  0.00  0.00    +0.000 C 
ENDROOT
BRANCH   6  23
ATOM     23  O   UNL     1       7.965   2.004   0.000  0.00  0.00    +0.000 OA
ATOM     24  H   UNL     1       8.921   1.839   0.000  0.00  0.00    +0.000 HD
ENDBRANCH   6  23
BRANCH  11  25
ATOM     25  O   UNL     1       4.682   4.990   0.000  0.00  0.00    +0.000 OA
ATOM     26  H   UNL     1       5.628   5.204   0.000  0.00  0.00    +0.000 HD
ENDBRANCH  11  25
BRANCH  17  27
ATOM     27  O   UNL     1       0.594   0.075   0.000  0.00  0.00    +0.000 OA
ATOM     28  H   UNL     1      -0.226   0.592   0.000  0.00  0.00    +0.000 HD
ENDBRANCH  17  27
BRANCH   1  29
ATOM     29  O   UNL     1       3.594  -1.593   0.000  0.00  0.00    +0.000 OA
BRANCH  29  31
ATOM     30  C   UNL     1       1.472  -3.093   0.000  0.00  0.00    +0.000 C 
ATOM     31  C   UNL     1       2.966  -2.956   0.000  0.00  0.00    +0.000 C 
ATOM     32  O   UNL     1       3.832  -4.181   0.000  0.00  0.00    +0.000 OA
ENDBRANCH  29  31
ENDBRANCH   1  29
BRANCH  15  33
ATOM     33  O   UNL     1      -1.274   3.126   0.000  0.00  0.00    +0.000 OA
BRANCH  33  34
ATOM     34  C   UNL     1      -2.376   2.107   0.000  0.00  0.00    +0.000 C 
ATOM     35  O   UNL     1      -2.045   0.644   0.000  0.00  0.00    +0.000 OA
BRANCH  34  36
ATOM     36  C   UNL     1      -3.808   2.552   0.000  0.00  0.00    +0.000 C 
BRANCH  36  37
ATOM     37  O   UNL     1      -4.139   4.015   0.000  0.00  0.00    +0.000 OA
ATOM     38  H   UNL     1      -3.427   4.674   0.000  0.00  0.00    +0.000 HD
ENDBRANCH  36  37
BRANCH  36  39
ATOM     39  C   UNL     1      -4.910   1.534   0.000  0.00  0.00    +0.000 C 
BRANCH  39  40
ATOM     40  C   UNL     1      -6.342   1.979   0.000  0.00  0.00    +0.000 A 
ATOM     41  C   UNL     1      -6.673   3.442   0.000  0.00  0.00    +0.000 A 
ATOM     42  C   UNL     1      -8.106   3.887   0.000  0.00  0.00    +0.000 A 
ATOM     43  C   UNL     1      -9.207   2.868   0.000  0.00  0.00    +0.000 A 
ATOM     44  C   UNL     1      -8.876   1.405   0.000  0.00  0.00    +0.000 A 
ATOM     45  C   UNL     1      -7.444   0.961   0.000  0.00  0.00    +0.000 A 
ENDBRANCH  39  40
BRANCH  39  46
ATOM     46  N   UNL     1      -4.579   0.071   0.000  0.00  0.00    +0.000 N 
ATOM     47  C   UNL     1      -5.680  -0.947   0.000  0.00  0.00    +0.000 C 
ATOM     48  O   UNL     1      -7.113  -0.502   0.000  0.00  0.00    +0.000 OA
ATOM     49  H   UNL     1      -3.639  -0.221   0.000  0.00  0.00    +0.000 HD
BRANCH  47  50
ATOM     50  O   UNL     1      -5.349  -2.410   0.000  0.00  0.00    +0.000 OA
BRANCH  50  51
ATOM     51  C   UNL     1      -6.451  -3.429   0.000  0.00  0.00    +0.000 C 
ATOM     52  C   UNL     1      -5.433  -4.530   0.000  0.00  0.00    +0.000 C 
ATOM     53  C   UNL     1      -7.469  -2.327   0.000  0.00  0.00    +0.000 C 
ATOM     54  C   UNL     1      -7.552  -4.447   0.000  0.00  0.00    +0.000 C 
ENDBRANCH  50  51
ENDBRANCH  47  50
ENDBRANCH  39  46
ENDBRANCH  36  39
ENDBRANCH  34  36
ENDBRANCH  33  34
ENDBRANCH  15  33
BRANCH  18  55
ATOM     55  O   UNL     1       2.630  -1.619   0.000  0.00  0.00    +0.000 OA
BRANCH  55  56
ATOM     56  C   UNL     1       1.167  -1.950   0.000  0.00  0.00    +0.000 C 
ATOM     57  O   UNL     1       0.149  -0.848   0.000  0.00  0.00    +0.000 OA
BRANCH  56  58
ATOM     58  C   UNL     1       0.722  -3.382   0.000  0.00  0.00    +0.000 A 
ATOM     59  C   UNL     1      -0.741  -3.713   0.000  0.00  0.00    +0.000 A 
ATOM     60  C   UNL     1      -1.185  -5.146   0.000  0.00  0.00    +0.000 A 
ATOM     61  C   UNL     1      -0.167  -6.247   0.000  0.00  0.00    +0.000 A 
ATOM     62  C   UNL     1       1.296  -5.916   0.000  0.00  0.00    +0.000 A 
ATOM     63  C   UNL     1       1.741  -4.484   0.000  0.00  0.00    +0.000 A 
ENDBRANCH  56  58
ENDBRANCH  55  56
ENDBRANCH  18  55
TORSDOF 17
