REMARK  Name = 
REMARK  28 active torsions:
REMARK  status: ('A' for Active; 'I' for Inactive)
REMARK    1  A    between atoms: C_1  and  O_2
REMARK    2  A    between atoms: O_2  and  C_3
REMARK    3  A    between atoms: C_4  and  O_5
REMARK    4  A    between atoms: O_5  and  C_6
REMARK    5  A    between atoms: C_6  and  C_7
REMARK    6  A    between atoms: C_13  and  C_14
REMARK    7  A    between atoms: C_20  and  O_21
REMARK    8  A    between atoms: C_22  and  C_23
REMARK    9  A    between atoms: C_25  and  C_26
REMARK   10  A    between atoms: C_26  and  C_27
REMARK   11  A    between atoms: C_29  and  O_30
REMARK   12  A    between atoms: O_30  and  C_31
REMARK   13  A    between atoms: C_33  and  C_34
REMARK   14  A    between atoms: C_35  and  O_36
REMARK   15  A    between atoms: O_36  and  C_37
REMARK   16  A    between atoms: C_39  and  C_40
REMARK   17  A    between atoms: C_39  and  O_41
REMARK   18  A    between atoms: C_42  and  O_43
REMARK   19  A    between atoms: O_43  and  C_44
REMARK   20  A    between atoms: C_44  and  C_46
REMARK   21  A    between atoms: C_46  and  C_47
REMARK   22  A    between atoms: C_47  and  C_48
REMARK   23  A    between atoms: C_47  and  C_49
REMARK   24  A    between atoms: C_50  and  C_51
REMARK   25  A    between atoms: C_53  and  N_54
REMARK   26  A    between atoms: N_54  and  C_55
REMARK   27  A    between atoms: N_54  and  C_56
REMARK   28  A    between atoms: C_57  and  O_58
REMARK                            x       y       z     vdW  Elec       q    Type
REMARK                         _______ _______ _______ _____ _____    ______ ____
ROOT
ATOM      1  O   UNL     1      -1.301  -0.048  -1.048  0.00  0.00    +0.000 OA
ENDROOT
BRANCH   1  20
ATOM      2  C   UNL     1      -2.541   1.824  -0.084  0.00  0.00    +0.000 C 
ATOM      3  C   UNL     1      -4.026   2.302  -0.823  0.00  0.00    +0.000 C 
ATOM      4  C   UNL     1      -4.981   1.192  -0.122  0.00  0.00    +0.000 C 
ATOM      5  C   UNL     1      -6.113   1.829   0.558  0.00  0.00    +0.000 C 
ATOM      6  O   UNL     1      -5.842   2.355   1.687  0.00  0.00    +0.000 OA
ATOM      7  O   UNL     1      -7.143   0.871   0.659  0.00  0.00    +0.000 OA
ATOM      8  C   UNL     1      -7.839   0.892  -0.716  0.00  0.00    +0.000 C 
ATOM      9  C   UNL     1      -9.323   0.769  -0.005  0.00  0.00    +0.000 C 
ATOM     10  C   UNL     1      -7.787  -0.729  -0.972  0.00  0.00    +0.000 C 
ATOM     11  C   UNL     1      -6.962  -1.400  -0.066  0.00  0.00    +0.000 C 
ATOM     12  C   UNL     1      -7.113  -2.353   0.799  0.00  0.00    +0.000 C 
ATOM     13  C   UNL     1      -5.846  -2.941   1.258  0.00  0.00    +0.000 C 
ATOM     14  C   UNL     1      -5.002  -3.422   0.384  0.00  0.00    +0.000 C 
ATOM     15  C   UNL     1      -4.723  -2.507  -0.915  0.00  0.00    +0.000 C 
ATOM     16  C   UNL     1      -3.055  -2.241  -0.603  0.00  0.00    +0.000 C 
ATOM     17  C   UNL     1      -2.691  -3.719  -0.059  0.00  0.00    +0.000 C 
ATOM     18  C   UNL     1      -3.326  -1.626   0.872  0.00  0.00    +0.000 C 
ATOM     19  C   UNL     1      -2.170  -0.487   0.965  0.00  0.00    +0.000 C 
ATOM     20  C   UNL     1      -2.683   0.188  -0.517  0.00  0.00    +0.000 C 
BRANCH   2  22
ATOM     21  C   UNL     1      -1.996   3.451  -1.424  0.00  0.00    +0.000 C 
ATOM     22  O   UNL     1      -1.911   2.252  -1.379  0.00  0.00    +0.000 OA
ENDBRANCH   2  22
BRANCH  15  23
ATOM     23  O   UNL     1      -4.417  -3.704  -1.790  0.00  0.00    +0.000 OA
ATOM     24  H   UNL     1      -3.792  -4.288  -1.333  0.00  0.00    +0.000 HD
ENDBRANCH  15  23
BRANCH   3  25
ATOM     25  O   UNL     1      -4.266   3.374   0.244  0.00  0.00    +0.000 OA
BRANCH  25  26
ATOM     26  C   UNL     1      -4.911   4.457  -0.364  0.00  0.00    +0.000 C 
ATOM     27  C   UNL     1      -4.720   5.864   0.092  0.00  0.00    +0.000 C 
ATOM     28  O   UNL     1      -5.561   4.340  -1.447  0.00  0.00    +0.000 OA
ENDBRANCH  25  26
ENDBRANCH   3  25
BRANCH  19  29
ATOM     29  C   UNL     1      -2.969   0.462   1.991  0.00  0.00    +0.000 C 
BRANCH  29  30
ATOM     30  C   UNL     1      -3.294  -0.388   3.156  0.00  0.00    +0.000 C 
ATOM     31  O   UNL     1      -4.401  -0.726   3.498  0.00  0.00    +0.000 OA
ENDBRANCH  29  30
ENDBRANCH  19  29
ENDBRANCH   1  20
BRANCH   1  32
ATOM     32  C   UNL     1      -0.371   0.862  -0.264  0.00  0.00    +0.000 C 
ATOM     33  O   UNL     1       0.601   0.874  -1.428  0.00  0.00    +0.000 OA
ATOM     34  C   UNL     1       1.539   1.565  -0.479  0.00  0.00    +0.000 C 
ATOM     35  C   UNL     1       2.248   2.408  -1.705  0.00  0.00    +0.000 C 
ATOM     36  C   UNL     1       2.562   0.245  -0.757  0.00  0.00    +0.000 C 
ATOM     37  C   UNL     1       1.618  -1.033  -0.179  0.00  0.00    +0.000 C 
ATOM     38  C   UNL     1       0.343  -0.375   0.699  0.00  0.00    +0.000 C 
BRANCH  37  39
ATOM     39  N   UNL     1       0.798  -1.352  -1.481  0.00  0.00    +0.000 NA
ATOM     40  C   UNL     1       0.274  -2.660  -1.058  0.00  0.00    +0.000 C 
ATOM     41  C   UNL     1       1.812  -1.758  -2.453  0.00  0.00    +0.000 C 
ENDBRANCH  37  39
BRANCH  38  42
ATOM     42  O   UNL     1       1.152   0.574   1.556  0.00  0.00    +0.000 OA
ATOM     43  H   UNL     1       1.690   1.145   0.986  0.00  0.00    +0.000 HD
ENDBRANCH  38  42
BRANCH  36  44
ATOM     44  O   UNL     1       3.245   0.411   0.576  0.00  0.00    +0.000 OA
BRANCH  44  45
ATOM     45  C   UNL     1       4.137  -0.834   0.443  0.00  0.00    +0.000 C 
ATOM     46  C   UNL     1       4.867  -0.205  -0.911  0.00  0.00    +0.000 C 
ATOM     47  C   UNL     1       6.287   0.106  -0.560  0.00  0.00    +0.000 C 
ATOM     48  C   UNL     1       6.882   0.026  -1.964  0.00  0.00    +0.000 C 
ATOM     49  C   UNL     1       6.927  -1.251   0.043  0.00  0.00    +0.000 C 
ATOM     50  C   UNL     1       6.198  -1.241   1.613  0.00  0.00    +0.000 C 
ATOM     51  C   UNL     1       5.284  -2.553   1.228  0.00  0.00    +0.000 C 
ATOM     52  O   UNL     1       5.147  -0.207   1.387  0.00  0.00    +0.000 OA
BRANCH  47  53
ATOM     53  O   UNL     1       6.341   1.194   0.126  0.00  0.00    +0.000 OA
ATOM     54  H   UNL     1       5.916   1.911  -0.370  0.00  0.00    +0.000 HD
ENDBRANCH  47  53
BRANCH  49  55
ATOM     55  O   UNL     1       8.223  -0.733   0.664  0.00  0.00    +0.000 OA
BRANCH  55  56
ATOM     56  C   UNL     1       9.045  -0.230  -0.300  0.00  0.00    +0.000 C 
ATOM     57  O   UNL     1       8.893   0.972  -0.076  0.00  0.00    +0.000 OA
BRANCH  56  58
ATOM     58  C   UNL     1      10.354  -0.616  -0.779  0.00  0.00    +0.000 C 
BRANCH  58  59
ATOM     59  C   UNL     1      11.380  -0.907   0.266  0.00  0.00    +0.000 C 
ATOM     60  C   UNL     1      12.431  -1.778  -0.380  0.00  0.00    +0.000 C 
ATOM     61  C   UNL     1      10.698  -1.637   1.389  0.00  0.00    +0.000 C 
ENDBRANCH  58  59
ENDBRANCH  56  58
ENDBRANCH  55  56
ENDBRANCH  49  55
ENDBRANCH  44  45
ENDBRANCH  36  44
ENDBRANCH   1  32
TORSDOF 17
