REMARK  Name = 448457
REMARK  16 active torsions:
REMARK  status: ('A' for Active; 'I' for Inactive)
REMARK    1  A    between atoms: O_1  and  C_8
REMARK    2  A    between atoms: O_3  and  C_15
REMARK    3  A    between atoms: O_4  and  C_25
REMARK    4  A    between atoms: C_6  and  C_11
REMARK    5  A    between atoms: C_7  and  C_12
REMARK    6  A    between atoms: C_11  and  C_13
REMARK    7  A    between atoms: C_14  and  C_15
REMARK    8  A    between atoms: C_15  and  C_16
REMARK    9  A    between atoms: C_16  and  C_18
REMARK   10  A    between atoms: C_17  and  C_19
REMARK   11  A    between atoms: C_18  and  C_20
REMARK   12  A    between atoms: C_19  and  C_21
REMARK   13  A    between atoms: C_20  and  C_22
REMARK   14  A    between atoms: C_21  and  C_23
REMARK   15  A    between atoms: C_22  and  C_24
REMARK   16  A    between atoms: C_23  and  C_25
REMARK                            x       y       z     vdW  Elec       q    Type
REMARK                         _______ _______ _______ _____ _____    ______ ____
ROOT
ATOM      1  O   UNL     1      -3.739   2.406  -1.129  0.00  0.00    +0.000 OA
ATOM      2  C   UNL     1      -2.266  -0.411   0.446  0.00  0.00    +0.000 C 
ATOM      3  C   UNL     1      -2.232   1.122   0.290  0.00  0.00    +0.000 C 
ATOM      4  C   UNL     1      -3.765  -0.743   0.492  0.00  0.00    +0.000 C 
ATOM      5  C   UNL     1      -4.378   0.146  -0.587  0.00  0.00    +0.000 C 
ATOM      6  C   UNL     1      -3.477   1.359  -0.548  0.00  0.00    +0.000 C 
ENDROOT
BRANCH   4   7
ATOM      7  O   UNL     1      -4.349  -0.402   1.745  0.00  0.00    +0.000 OA
ATOM      8  H   UNL     1      -5.295  -0.620   1.695  0.00  0.00    +0.000 HD
ENDBRANCH   4   7
BRANCH   3   9
ATOM      9  C   UNL     1      -1.013   1.634  -0.393  0.00  0.00    +0.000 C 
ATOM     10  C   UNL     1      -0.217   2.587   0.115  0.00  0.00    +0.000 C 
BRANCH  10  11
ATOM     11  C   UNL     1       1.012   3.102  -0.579  0.00  0.00    +0.000 C 
BRANCH  11  12
ATOM     12  O   UNL     1       0.825   4.492  -0.851  0.00  0.00    +0.000 OA
ATOM     13  H   UNL     1       0.048   4.578  -1.429  0.00  0.00    +0.000 HD
ENDBRANCH  11  12
BRANCH  11  14
ATOM     14  C   UNL     1       2.280   2.967   0.275  0.00  0.00    +0.000 C 
BRANCH  14  15
ATOM     15  C   UNL     1       2.828   1.538   0.321  0.00  0.00    +0.000 C 
BRANCH  15  16
ATOM     16  C   UNL     1       4.048   1.383   1.235  0.00  0.00    +0.000 C 
BRANCH  16  17
ATOM     17  C   UNL     1       4.640  -0.027   1.229  0.00  0.00    +0.000 C 
ATOM     18  C   UNL     1       5.839  -0.128   2.159  0.00  0.00    +0.000 C 
ENDBRANCH  16  17
ENDBRANCH  15  16
ENDBRANCH  14  15
ENDBRANCH  11  14
ENDBRANCH  10  11
ENDBRANCH   3   9
BRANCH   2  19
ATOM     19  C   UNL     1      -1.483  -0.896   1.661  0.00  0.00    +0.000 C 
BRANCH  19  20
ATOM     20  C   UNL     1      -1.485  -2.376   1.922  0.00  0.00    +0.000 C 
ATOM     21  C   UNL     1      -0.643  -3.291   1.417  0.00  0.00    +0.000 C 
BRANCH  21  22
ATOM     22  C   UNL     1       0.476  -2.959   0.474  0.00  0.00    +0.000 C 
BRANCH  22  23
ATOM     23  C   UNL     1       0.366  -3.663  -0.885  0.00  0.00    +0.000 C 
BRANCH  23  24
ATOM     24  C   UNL     1       1.517  -3.344  -1.845  0.00  0.00    +0.000 C 
BRANCH  24  26
ATOM     25  O   UNL     1       0.689  -1.092  -2.258  0.00  0.00    +0.000 OA
ATOM     26  C   UNL     1       1.625  -1.878  -2.203  0.00  0.00    +0.000 C 
BRANCH  26  27
ATOM     27  O   UNL     1       2.902  -1.528  -2.506  0.00  0.00    +0.000 OA
ATOM     28  H   UNL     1       2.972  -0.581  -2.752  0.00  0.00    +0.000 HD
ENDBRANCH  26  27
ENDBRANCH  24  26
ENDBRANCH  23  24
ENDBRANCH  22  23
ENDBRANCH  21  22
ENDBRANCH  19  20
ENDBRANCH   2  19
TORSDOF 15
