REMARK  Name = 445420
REMARK  4 active torsions:
REMARK  status: ('A' for Active; 'I' for Inactive)
REMARK    1  A    between atoms: O_3  and  C_8
REMARK    2  A    between atoms: C_8  and  C_13
REMARK    3  A    between atoms: C_17  and  C_19
REMARK    4  A    between atoms: C_24  and  C_29
REMARK                            x       y       z     vdW  Elec       q    Type
REMARK                         _______ _______ _______ _____ _____    ______ ____
ROOT
ATOM      1  O   UNL     1      -1.623  -0.062  -0.753  0.00  0.00    +0.000 OA
ATOM      2  O   UNL     1       1.704  -1.530  -0.642  0.00  0.00    +0.000 OA
ATOM      3  O   UNL     1       2.320  -3.728  -0.965  0.00  0.00    +0.000 OA
ATOM      4  C   UNL     1      -1.326  -1.250  -0.011  0.00  0.00    +0.000 C 
ATOM      5  C   UNL     1      -0.466   0.601  -1.268  0.00  0.00    +0.000 C 
ATOM      6  C   UNL     1      -0.617  -2.267  -0.919  0.00  0.00    +0.000 C 
ATOM      7  C   UNL     1       0.626  -1.679  -1.597  0.00  0.00    +0.000 C 
ATOM      8  C   UNL     1       0.305  -0.320  -2.222  0.00  0.00    +0.000 C 
ATOM      9  C   UNL     1      -0.920   1.869  -2.010  0.00  0.00    +0.000 C 
ATOM     10  C   UNL     1      -1.749   2.856  -1.168  0.00  0.00    +0.000 C 
ATOM     11  C   UNL     1      -1.023   3.468   0.046  0.00  0.00    +0.000 C 
ATOM     12  C   UNL     1      -1.974   4.391   0.815  0.00  0.00    +0.000 C 
ATOM     13  C   UNL     1       2.478  -2.630  -0.443  0.00  0.00    +0.000 C 
ATOM     14  C   UNL     1       0.201   4.253  -0.374  0.00  0.00    +0.000 C 
ATOM     15  C   UNL     1       3.544  -2.424   0.561  0.00  0.00    +0.000 C 
ATOM     16  C   UNL     1       1.491   3.948  -0.155  0.00  0.00    +0.000 C 
ATOM     17  C   UNL     1       4.258  -1.323   0.862  0.00  0.00    +0.000 C 
ATOM     18  C   UNL     1       4.136   0.039   0.215  0.00  0.00    +0.000 C 
ATOM     19  C   UNL     1       1.974   2.792   0.560  0.00  0.00    +0.000 C 
ATOM     20  C   UNL     1       3.682   1.108   1.217  0.00  0.00    +0.000 C 
ATOM     21  C   UNL     1       3.243   2.362   0.517  0.00  0.00    +0.000 C 
ATOM     22  C   UNL     1       5.346  -1.426   1.906  0.00  0.00    +0.000 C 
ENDROOT
BRANCH   4  26
ATOM     23  S   UNL     1      -5.255  -1.997   0.068  0.00  0.00    +0.000 S 
ATOM     24  O   UNL     1      -5.469  -0.345   2.114  0.00  0.00    +0.000 OA
ATOM     25  N   UNL     1      -3.333  -0.904   1.363  0.00  0.00    +0.000 N 
ATOM     26  C   UNL     1      -2.660  -1.811   0.456  0.00  0.00    +0.000 C 
ATOM     27  C   UNL     1      -3.612  -2.072  -0.704  0.00  0.00    +0.000 C 
ATOM     28  C   UNL     1      -4.710  -0.936   1.362  0.00  0.00    +0.000 C 
ATOM     29  H   UNL     1      -2.822  -0.391   2.075  0.00  0.00    +0.000 HD
ENDBRANCH   4  26
BRANCH   4  30
ATOM     30  O   UNL     1      -0.572  -0.982   1.171  0.00  0.00    +0.000 OA
ATOM     31  H   UNL     1       0.373  -1.030   0.952  0.00  0.00    +0.000 HD
ENDBRANCH   4  30
TORSDOF 2
