REMARK  Name = 
REMARK  21 active torsions:
REMARK  status: ('A' for Active; 'I' for Inactive)
REMARK    1  A    between atoms: O_1  and  C_21
REMARK    2  A    between atoms: O_1  and  C_38
REMARK    3  A    between atoms: O_2  and  C_20
REMARK    4  A    between atoms: O_3  and  C_24
REMARK    5  A    between atoms: O_4  and  C_26
REMARK    6  A    between atoms: O_4  and  C_43
REMARK    7  A    between atoms: O_5  and  C_39
REMARK    8  A    between atoms: O_5  and  C_46
REMARK    9  A    between atoms: O_12  and  C_57
REMARK   10  A    between atoms: N_16  and  C_44
REMARK   11  A    between atoms: N_17  and  C_55
REMARK   12  A    between atoms: C_19  and  C_25
REMARK   13  A    between atoms: C_22  and  C_28
REMARK   14  A    between atoms: C_23  and  C_29
REMARK   15  A    between atoms: C_27  and  C_31
REMARK   16  A    between atoms: C_30  and  C_39
REMARK   17  A    between atoms: C_38  and  C_40
REMARK   18  A    between atoms: C_40  and  C_46
REMARK   19  A    between atoms: C_45  and  C_53
REMARK   20  A    between atoms: C_54  and  C_63
REMARK   21  A    between atoms: C_60  and  C_67
REMARK                            x       y       z     vdW  Elec       q    Type
REMARK                         _______ _______ _______ _____ _____    ______ ____
ROOT
ATOM      1  O   UNL     1       3.390   1.157   0.000  0.00  0.00    +0.000 OA
ATOM      2  O   UNL     1       3.781   2.729   0.000  0.00  0.00    +0.000 OA
ATOM      3  O   UNL     1       2.887   1.281   0.000  0.00  0.00    +0.000 OA
ATOM      4  O   UNL     1       1.725   2.434   0.000  0.00  0.00    +0.000 OA
ATOM      5  O   UNL     1       1.016   5.370   0.000  0.00  0.00    +0.000 OA
ATOM      6  O   UNL     1      -1.479   2.458   0.000  0.00  0.00    +0.000 OA
ATOM      7  N   UNL     1      -0.482   3.758   0.000  0.00  0.00    +0.000 N 
ATOM      8  C   UNL     1      -0.886   1.448   0.000  0.00  0.00    +0.000 C 
ATOM      9  C   UNL     1      -1.696   1.289   0.000  0.00  0.00    +0.000 C 
ATOM     10  C   UNL     1      -0.201   0.988   0.000  0.00  0.00    +0.000 C 
ATOM     11  C   UNL     1      -2.156   0.604   0.000  0.00  0.00    +0.000 C 
ATOM     12  C   UNL     1       0.539   1.351   0.000  0.00  0.00    +0.000 C 
ATOM     13  C   UNL     1      -2.979   0.660   0.000  0.00  0.00    +0.000 C 
ATOM     14  C   UNL     1      -0.938   2.271   0.000  0.00  0.00    +0.000 C 
ATOM     15  C   UNL     1       1.224   0.891   0.000  0.00  0.00    +0.000 C 
ATOM     16  C   UNL     1      -3.521   1.282   0.000  0.00  0.00    +0.000 C 
ATOM     17  C   UNL     1      -2.284  -0.211   0.000  0.00  0.00    +0.000 C 
ATOM     18  C   UNL     1       1.349   1.510   0.000  0.00  0.00    +0.000 C 
ATOM     19  C   UNL     1      -4.276   1.616   0.000  0.00  0.00    +0.000 C 
ATOM     20  C   UNL     1       1.965   1.254   0.000  0.00  0.00    +0.000 C 
ATOM     21  C   UNL     1      -3.254   2.062   0.000  0.00  0.00    +0.000 C 
ATOM     22  C   UNL     1       2.650   0.794   0.000  0.00  0.00    +0.000 C 
ATOM     23  C   UNL     1      -2.513   2.425   0.000  0.00  0.00    +0.000 C 
ATOM     24  C   UNL     1       3.446   1.980   0.000  0.00  0.00    +0.000 C 
ATOM     25  C   UNL     1       2.458   2.867   0.000  0.00  0.00    +0.000 A 
ATOM     26  C   UNL     1       2.631   2.065   0.000  0.00  0.00    +0.000 C 
ATOM     27  C   UNL     1       3.173   3.279   0.000  0.00  0.00    +0.000 A 
ATOM     28  C   UNL     1       1.744   3.279   0.000  0.00  0.00    +0.000 A 
ATOM     29  C   UNL     1      -2.458   3.248   0.000  0.00  0.00    +0.000 C 
ATOM     30  C   UNL     1       1.744   4.104   0.000  0.00  0.00    +0.000 A 
ATOM     31  C   UNL     1       4.247   1.781   0.000  0.00  0.00    +0.000 C 
ATOM     32  C   UNL     1       3.173   4.104   0.000  0.00  0.00    +0.000 A 
ATOM     33  C   UNL     1       0.259   3.262   0.000  0.00  0.00    +0.000 C 
ATOM     34  C   UNL     1       1.006   2.838   0.000  0.00  0.00    +0.000 C 
ATOM     35  C   UNL     1       2.458   4.517   0.000  0.00  0.00    +0.000 A 
ATOM     36  C   UNL     1       0.259   4.121   0.000  0.00  0.00    +0.000 C 
ATOM     37  C   UNL     1       1.006   4.545   0.000  0.00  0.00    +0.000 C 
ATOM     38  C   UNL     1      -1.717   3.612   0.000  0.00  0.00    +0.000 C 
ATOM     39  C   UNL     1       3.887   4.517   0.000  0.00  0.00    +0.000 C 
ATOM     40  C   UNL     1      -1.032   3.151   0.000  0.00  0.00    +0.000 C 
ATOM     41  C   UNL     1      -1.946   4.404   0.000  0.00  0.00    +0.000 C 
ATOM     42  H   UNL     1      -1.074   4.545   0.000  0.00  0.00    +0.000 HD
ENDROOT
BRANCH  33  44
ATOM     43  O   UNL     1      -0.987   5.401   0.000  0.00  0.00    +0.000 OA
ATOM     44  N   UNL     1      -0.156   3.975   0.000  0.00  0.00    +0.000 N 
ATOM     45  C   UNL     1       0.253   4.691   0.000  0.00  0.00    +0.000 C 
ATOM     46  C   UNL     1      -0.981   3.972   0.000  0.00  0.00    +0.000 C 
ATOM     47  C   UNL     1      -1.396   4.685   0.000  0.00  0.00    +0.000 C 
ATOM     48  C   UNL     1      -0.161   5.404   0.000  0.00  0.00    +0.000 C 
ENDBRANCH  33  44
BRANCH   9  49
ATOM     49  O   UNL     1      -2.505   1.452   0.000  0.00  0.00    +0.000 OA
ATOM     50  H   UNL     1      -2.814   2.371   0.000  0.00  0.00    +0.000 HD
ENDBRANCH   9  49
BRANCH  13  51
ATOM     51  O   UNL     1      -3.524   0.041   0.000  0.00  0.00    +0.000 OA
ATOM     52  H   UNL     1      -4.475   0.233   0.000  0.00  0.00    +0.000 HD
ENDBRANCH  13  51
BRANCH  15  53
ATOM     53  O   UNL     1       1.383   0.081   0.000  0.00  0.00    +0.000 OA
ATOM     54  C   UNL     1       2.164  -0.186   0.000  0.00  0.00    +0.000 C 
ENDBRANCH  15  53
BRANCH  35  55
ATOM     55  O   UNL     1       2.458   5.342   0.000  0.00  0.00    +0.000 OA
ATOM     56  H   UNL     1       3.270   5.810   0.000  0.00  0.00    +0.000 HD
ENDBRANCH  35  55
BRANCH  10  57
ATOM     57  O   UNL     1      -0.043   0.178   0.000  0.00  0.00    +0.000 OA
BRANCH  57  59
ATOM     58  O   UNL     1      -1.119  -0.761   0.000  0.00  0.00    +0.000 OA
ATOM     59  C   UNL     1      -0.310  -0.602   0.000  0.00  0.00    +0.000 C 
BRANCH  59  60
ATOM     60  C   UNL     1       0.233  -1.224   0.000  0.00  0.00    +0.000 C 
BRANCH  60  62
ATOM     61  O   UNL     1      -0.844  -2.163   0.000  0.00  0.00    +0.000 OA
ATOM     62  C   UNL     1      -0.034  -2.004   0.000  0.00  0.00    +0.000 C 
BRANCH  62  63
ATOM     63  O   UNL     1       0.508  -2.626   0.000  0.00  0.00    +0.000 OA
BRANCH  63  64
ATOM     64  C   UNL     1       0.241  -3.406   0.000  0.00  0.00    +0.000 C 
BRANCH  64  66
ATOM     65  N   UNL     1       2.135  -4.491   0.000  0.00  0.00    +0.000 NA
ATOM     66  C   UNL     1       0.783  -4.028   0.000  0.00  0.00    +0.000 C 
ATOM     67  C   UNL     1       0.516  -4.809   0.000  0.00  0.00    +0.000 C 
ATOM     68  C   UNL     1       1.593  -3.869   0.000  0.00  0.00    +0.000 C 
ATOM     69  C   UNL     1       1.059  -5.430   0.000  0.00  0.00    +0.000 C 
ATOM     70  C   UNL     1       1.868  -5.271   0.000  0.00  0.00    +0.000 C 
ATOM     71  C   UNL     1       2.945  -4.332   0.000  0.00  0.00    +0.000 C 
ENDBRANCH  64  66
ENDBRANCH  63  64
ENDBRANCH  62  63
ENDBRANCH  60  62
ENDBRANCH  59  60
ENDBRANCH  57  59
ENDBRANCH  10  57
TORSDOF 12
