REMARK  Name = 285033
REMARK  17 active torsions:
REMARK  status: ('A' for Active; 'I' for Inactive)
REMARK    1  A    between atoms: O_1  and  C_14
REMARK    2  A    between atoms: O_1  and  C_27
REMARK    3  A    between atoms: O_2  and  C_20
REMARK    4  A    between atoms: O_2  and  C_29
REMARK    5  A    between atoms: O_6  and  C_28
REMARK    6  A    between atoms: O_7  and  C_36
REMARK    7  A    between atoms: O_7  and  C_39
REMARK    8  A    between atoms: O_8  and  C_35
REMARK    9  A    between atoms: C_27  and  C_28
REMARK   10  A    between atoms: C_28  and  C_30
REMARK   11  A    between atoms: C_28  and  C_32
REMARK   12  A    between atoms: C_30  and  C_33
REMARK   13  A    between atoms: C_32  and  C_36
REMARK   14  A    between atoms: C_33  and  C_34
REMARK   15  A    between atoms: C_34  and  C_35
REMARK   16  A    between atoms: C_35  and  C_37
REMARK   17  A    between atoms: C_35  and  C_38
REMARK                            x       y       z     vdW  Elec       q    Type
REMARK                         _______ _______ _______ _____ _____    ______ ____
ROOT
ATOM      1  O   UNL     1      -0.786  -3.920   0.427  0.00  0.00    +0.000 OA
ATOM      2  O   UNL     1      -0.585  -3.974  -1.973  0.00  0.00    +0.000 OA
ATOM      3  N   UNL     1       4.466  -0.706  -0.461  0.00  0.00    +0.000 NA
ATOM      4  C   UNL     1       3.889   0.100   0.619  0.00  0.00    +0.000 C 
ATOM      5  C   UNL     1       2.366  -0.133   0.939  0.00  0.00    +0.000 C 
ATOM      6  C   UNL     1       4.760  -0.381   1.796  0.00  0.00    +0.000 C 
ATOM      7  C   UNL     1       1.713   1.276   1.036  0.00  0.00    +0.000 C 
ATOM      8  C   UNL     1       5.921  -0.746  -0.285  0.00  0.00    +0.000 C 
ATOM      9  C   UNL     1       6.151  -0.566   1.208  0.00  0.00    +0.000 C 
ATOM     10  C   UNL     1       3.992   1.596   0.464  0.00  0.00    +0.000 C 
ATOM     11  C   UNL     1       1.612  -1.135   0.075  0.00  0.00    +0.000 A 
ATOM     12  C   UNL     1       4.086  -0.400  -1.837  0.00  0.00    +0.000 C 
ATOM     13  C   UNL     1       2.825   2.204   0.692  0.00  0.00    +0.000 C 
ATOM     14  C   UNL     1       2.591  -0.182  -2.079  0.00  0.00    +0.000 C 
ATOM     15  C   UNL     1       1.716  -1.165  -1.344  0.00  0.00    +0.000 A 
ATOM     16  C   UNL     1       0.761  -2.055   0.721  0.00  0.00    +0.000 A 
ATOM     17  C   UNL     1       0.991  -2.115  -2.087  0.00  0.00    +0.000 A 
ATOM     18  C   UNL     1       0.067  -2.969  -0.044  0.00  0.00    +0.000 A 
ATOM     19  C   UNL     1       0.180  -2.999  -1.410  0.00  0.00    +0.000 A 
ATOM     20  C   UNL     1      -1.194  -4.555  -0.802  0.00  0.00    +0.000 C 
ENDROOT
BRANCH  13  21
ATOM     21  O   UNL     1       2.588   3.548   0.652  0.00  0.00    +0.000 OA
ATOM     22  C   UNL     1       3.765   4.271   0.327  0.00  0.00    +0.000 C 
ENDBRANCH  13  21
BRANCH   7  23
ATOM     23  O   UNL     1       0.618   1.449   0.152  0.00  0.00    +0.000 OA
BRANCH  23  25
ATOM     24  O   UNL     1      -0.751   1.965   1.931  0.00  0.00    +0.000 OA
ATOM     25  C   UNL     1      -0.577   1.798   0.730  0.00  0.00    +0.000 C 
BRANCH  25  26
ATOM     26  C   UNL     1      -1.671   1.950  -0.327  0.00  0.00    +0.000 C 
BRANCH  26  27
ATOM     27  O   UNL     1      -1.043   2.484  -1.490  0.00  0.00    +0.000 OA
ATOM     28  H   UNL     1      -0.450   1.802  -1.850  0.00  0.00    +0.000 HD
ENDBRANCH  26  27
BRANCH  26  29
ATOM     29  C   UNL     1      -2.347   0.604  -0.660  0.00  0.00    +0.000 C 
BRANCH  29  30
ATOM     30  C   UNL     1      -3.030  -0.082   0.535  0.00  0.00    +0.000 C 
BRANCH  30  31
ATOM     31  C   UNL     1      -3.698  -1.396   0.103  0.00  0.00    +0.000 C 
BRANCH  31  32
ATOM     32  C   UNL     1      -4.343  -2.193   1.256  0.00  0.00    +0.000 C 
ATOM     33  C   UNL     1      -5.449  -1.408   1.963  0.00  0.00    +0.000 C 
ATOM     34  C   UNL     1      -4.909  -3.514   0.723  0.00  0.00    +0.000 C 
BRANCH  32  35
ATOM     35  O   UNL     1      -3.348  -2.505   2.233  0.00  0.00    +0.000 OA
ATOM     36  H   UNL     1      -3.769  -3.026   2.939  0.00  0.00    +0.000 HD
ENDBRANCH  32  35
ENDBRANCH  31  32
ENDBRANCH  30  31
ENDBRANCH  29  30
ENDBRANCH  26  29
BRANCH  26  37
ATOM     37  C   UNL     1      -2.678   3.000   0.175  0.00  0.00    +0.000 C 
BRANCH  37  39
ATOM     38  O   UNL     1      -3.670   3.673  -1.926  0.00  0.00    +0.000 OA
ATOM     39  C   UNL     1      -3.817   3.242  -0.789  0.00  0.00    +0.000 C 
BRANCH  39  40
ATOM     40  O   UNL     1      -5.001   2.889  -0.210  0.00  0.00    +0.000 OA
ATOM     41  C   UNL     1      -6.161   3.050  -1.033  0.00  0.00    +0.000 C 
ENDBRANCH  39  40
ENDBRANCH  37  39
ENDBRANCH  26  37
ENDBRANCH  25  26
ENDBRANCH  23  25
ENDBRANCH   7  23
TORSDOF 13
