REMARK  Name = 
REMARK  22 active torsions:
REMARK  status: ('A' for Active; 'I' for Inactive)
REMARK    1  A    between atoms: C_1  and  O_2
REMARK    2  A    between atoms: O_2  and  C_3
REMARK    3  A    between atoms: C_5  and  C_6
REMARK    4  A    between atoms: C_6  and  C_7
REMARK    5  A    between atoms: C_7  and  C_8
REMARK    6  A    between atoms: C_7  and  C_9
REMARK    7  A    between atoms: C_13  and  C_14
REMARK    8  A    between atoms: C_16  and  C_17
REMARK    9  A    between atoms: C_18  and  O_19
REMARK   10  A    between atoms: C_20  and  O_21
REMARK   11  A    between atoms: O_21  and  C_22
REMARK   12  A    between atoms: C_25  and  C_26
REMARK   13  A    between atoms: C_28  and  C_29
REMARK   14  A    between atoms: C_35  and  C_36
REMARK   15  A    between atoms: C_37  and  O_38
REMARK   16  A    between atoms: O_38  and  C_39
REMARK   17  A    between atoms: C_44  and  C_45
REMARK   18  A    between atoms: C_46  and  O_47
REMARK   19  A    between atoms: C_64  and  O_65
REMARK   20  A    between atoms: O_65  and  P_66
REMARK   21  A    between atoms: P_66  and  C_67
REMARK   22  A    between atoms: P_66  and  C_68
REMARK                            x       y       z     vdW  Elec       q    Type
REMARK                         _______ _______ _______ _____ _____    ______ ____
ROOT
ATOM      1  C   UNL     1       1.395  -0.156  -0.912  0.00  0.00    +0.000 C 
ATOM      2  C   UNL     1       0.682   1.129  -0.215  0.00  0.00    +0.000 C 
ATOM      3  C   UNL     1       1.526   1.954   0.559  0.00  0.00    +0.000 C 
ATOM      4  O   UNL     1       2.045   1.589   1.574  0.00  0.00    +0.000 OA
ATOM      5  C   UNL     1       1.400   3.546   0.325  0.00  0.00    +0.000 C 
ATOM      6  C   UNL     1       1.197   3.918   1.912  0.00  0.00    +0.000 C 
ATOM      7  C   UNL     1      -0.184   3.443   0.124  0.00  0.00    +0.000 C 
ATOM      8  C   UNL     1      -0.850   4.185  -0.702  0.00  0.00    +0.000 C 
ATOM      9  C   UNL     1      -1.214   3.556  -2.026  0.00  0.00    +0.000 C 
ATOM     10  C   UNL     1      -2.148   4.504   0.215  0.00  0.00    +0.000 C 
ATOM     11  C   UNL     1      -2.849   5.779  -0.720  0.00  0.00    +0.000 C 
ATOM     12  C   UNL     1      -3.610   4.770  -1.734  0.00  0.00    +0.000 C 
ATOM     13  O   UNL     1      -4.320   5.486  -2.395  0.00  0.00    +0.000 OA
ATOM     14  C   UNL     1      -4.288   3.553  -0.940  0.00  0.00    +0.000 C 
ATOM     15  C   UNL     1      -5.573   3.381  -1.939  0.00  0.00    +0.000 C 
ATOM     16  C   UNL     1      -5.116   4.538   0.068  0.00  0.00    +0.000 C 
ATOM     17  C   UNL     1      -6.375   3.576   0.471  0.00  0.00    +0.000 C 
ATOM     18  C   UNL     1      -6.411   4.155   2.000  0.00  0.00    +0.000 C 
ATOM     19  C   UNL     1      -5.427   2.350   0.891  0.00  0.00    +0.000 C 
ATOM     20  C   UNL     1      -6.071   1.342   1.472  0.00  0.00    +0.000 C 
ATOM     21  C   UNL     1      -5.913  -0.031   0.977  0.00  0.00    +0.000 C 
ATOM     22  C   UNL     1      -6.012  -0.149  -0.344  0.00  0.00    +0.000 C 
ATOM     23  C   UNL     1      -6.707  -1.351  -0.823  0.00  0.00    +0.000 C 
ATOM     24  C   UNL     1      -6.376  -2.536  -0.318  0.00  0.00    +0.000 C 
ATOM     25  C   UNL     1      -7.552  -3.482  -0.356  0.00  0.00    +0.000 C 
ATOM     26  C   UNL     1      -5.199  -3.334  -1.100  0.00  0.00    +0.000 C 
ATOM     27  C   UNL     1      -4.364  -3.631   0.296  0.00  0.00    +0.000 C 
ATOM     28  C   UNL     1      -2.950  -4.053  -0.446  0.00  0.00    +0.000 C 
ATOM     29  C   UNL     1      -3.457  -5.608  -0.642  0.00  0.00    +0.000 C 
ATOM     30  C   UNL     1      -2.179  -6.280  -1.050  0.00  0.00    +0.000 C 
ATOM     31  C   UNL     1      -1.378  -6.433   0.362  0.00  0.00    +0.000 C 
ATOM     32  C   UNL     1       0.030  -6.841  -0.353  0.00  0.00    +0.000 C 
ATOM     33  C   UNL     1      -1.002  -4.837   0.572  0.00  0.00    +0.000 C 
ATOM     34  O   UNL     1      -2.299  -4.381   0.881  0.00  0.00    +0.000 OA
ATOM     35  C   UNL     1      -0.368  -5.032   1.825  0.00  0.00    +0.000 C 
ATOM     36  O   UNL     1      -1.029  -5.664   2.727  0.00  0.00    +0.000 OA
ATOM     37  C   UNL     1       0.804  -4.337   2.360  0.00  0.00    +0.000 C 
ATOM     38  O   UNL     1       1.275  -4.628   3.496  0.00  0.00    +0.000 OA
ATOM     39  N   UNL     1       1.010  -3.034   1.931  0.00  0.00    +0.000 N 
ATOM     40  C   UNL     1       1.567  -1.942   2.701  0.00  0.00    +0.000 C 
ATOM     41  C   UNL     1       0.389  -1.177   3.262  0.00  0.00    +0.000 C 
ATOM     42  C   UNL     1      -0.770  -1.467   2.322  0.00  0.00    +0.000 C 
ATOM     43  C   UNL     1      -0.300  -1.367   0.960  0.00  0.00    +0.000 C 
ATOM     44  C   UNL     1       0.537  -2.685   0.470  0.00  0.00    +0.000 C 
ATOM     45  C   UNL     1       1.966  -2.011   0.151  0.00  0.00    +0.000 C 
ATOM     46  O   UNL     1       2.835  -2.929   0.156  0.00  0.00    +0.000 OA
ATOM     47  O   UNL     1       2.109  -0.687   0.337  0.00  0.00    +0.000 OA
ENDROOT
BRANCH   1  48
ATOM     48  C   UNL     1       2.715   0.844  -1.338  0.00  0.00    +0.000 C 
ATOM     49  C   UNL     1       2.292   0.729  -2.902  0.00  0.00    +0.000 C 
BRANCH  48  50
ATOM     50  C   UNL     1       3.855  -0.296  -1.455  0.00  0.00    +0.000 C 
BRANCH  50  53
ATOM     51  C   UNL     1       6.869   0.089  -1.760  0.00  0.00    +0.000 C 
ATOM     52  C   UNL     1       6.072  -0.694  -0.602  0.00  0.00    +0.000 C 
ATOM     53  C   UNL     1       4.710  -0.052  -0.073  0.00  0.00    +0.000 C 
ATOM     54  C   UNL     1       5.102   1.522  -0.289  0.00  0.00    +0.000 C 
ATOM     55  C   UNL     1       6.422   1.471   0.354  0.00  0.00    +0.000 C 
ATOM     56  C   UNL     1       7.566   1.359  -0.797  0.00  0.00    +0.000 C 
BRANCH  51  58
ATOM     57  C   UNL     1       6.235   1.623  -3.247  0.00  0.00    +0.000 C 
ATOM     58  O   UNL     1       5.786   0.965  -2.354  0.00  0.00    +0.000 OA
ENDBRANCH  51  58
BRANCH  56  59
ATOM     59  O   UNL     1       8.340   0.338   0.001  0.00  0.00    +0.000 OA
BRANCH  59  60
ATOM     60  P   UNL     1       9.604   1.200   0.736  0.00  0.00    +0.000 P 
ATOM     61  C   UNL     1       9.002   2.216   2.110  0.00  0.00    +0.000 C 
ATOM     62  C   UNL     1      10.523   2.178  -0.475  0.00  0.00    +0.000 C 
ATOM     63  O   UNL     1      10.554   0.153   1.275  0.00  0.00    +0.000 OA
ENDBRANCH  59  60
ENDBRANCH  56  59
ENDBRANCH  50  53
ENDBRANCH  48  50
ENDBRANCH   1  48
BRANCH  10  64
ATOM     64  O   UNL     1      -1.397   5.522   1.045  0.00  0.00    +0.000 OA
ATOM     65  H   UNL     1      -0.940   6.144   0.458  0.00  0.00    +0.000 HD
ENDBRANCH  10  64
BRANCH  11  66
ATOM     66  O   UNL     1      -1.693   5.996  -1.665  0.00  0.00    +0.000 OA
ATOM     67  C   UNL     1      -2.023   7.183  -2.274  0.00  0.00    +0.000 C 
ENDBRANCH  11  66
BRANCH  26  68
ATOM     68  O   UNL     1      -4.373  -2.082  -1.355  0.00  0.00    +0.000 OA
ATOM     69  C   UNL     1      -3.998  -2.330  -2.684  0.00  0.00    +0.000 C 
ENDBRANCH  26  68
BRANCH  33  70
ATOM     70  O   UNL     1      -0.644  -4.625  -0.632  0.00  0.00    +0.000 OA
ATOM     71  H   UNL     1      -1.431  -4.550  -1.195  0.00  0.00    +0.000 HD
ENDBRANCH  33  70
TORSDOF 10
