REMARK  Name = 
REMARK  26 active torsions:
REMARK  status: ('A' for Active; 'I' for Inactive)
REMARK    1  A    between atoms: C_1  and  C_2
REMARK    2  A    between atoms: C_2  and  C_3
REMARK    3  A    between atoms: C_7  and  C_8
REMARK    4  A    between atoms: C_9  and  O_10
REMARK    5  A    between atoms: O_10  and  C_11
REMARK    6  A    between atoms: C_13  and  C_14
REMARK    7  A    between atoms: C_13  and  O_15
REMARK    8  A    between atoms: O_15  and  C_16
REMARK    9  A    between atoms: C_17  and  O_18
REMARK   10  A    between atoms: C_19  and  C_20
REMARK   11  A    between atoms: C_22  and  C_23
REMARK   12  A    between atoms: C_24  and  O_25
REMARK   13  A    between atoms: O_25  and  C_26
REMARK   14  A    between atoms: C_28  and  C_29
REMARK   15  A    between atoms: C_31  and  N_32
REMARK   16  A    between atoms: N_32  and  C_33
REMARK   17  A    between atoms: N_32  and  C_34
REMARK   18  A    between atoms: C_34  and  C_35
REMARK   19  A    between atoms: C_34  and  C_36
REMARK   20  A    between atoms: C_37  and  O_38
REMARK   21  A    between atoms: C_39  and  C_40
REMARK   22  A    between atoms: C_42  and  C_43
REMARK   23  A    between atoms: C_46  and  C_47
REMARK   24  A    between atoms: C_50  and  C_51
REMARK   25  A    between atoms: C_50  and  O_52
REMARK   26  A    between atoms: O_52  and  C_53
REMARK                            x       y       z     vdW  Elec       q    Type
REMARK                         _______ _______ _______ _____ _____    ______ ____
ROOT
ATOM      1  C   UNL     1      -2.864  -3.195  -1.281  0.00  0.00    +0.000 C 
ATOM      2  O   UNL     1      -3.732  -2.037  -0.758  0.00  0.00    +0.000 OA
ATOM      3  C   UNL     1      -3.100  -0.836  -1.171  0.00  0.00    +0.000 C 
ATOM      4  O   UNL     1      -3.756   0.144  -1.532  0.00  0.00    +0.000 OA
ATOM      5  C   UNL     1      -2.078  -0.664   0.037  0.00  0.00    +0.000 C 
ATOM      6  C   UNL     1      -3.218  -0.091   1.041  0.00  0.00    +0.000 C 
ATOM      7  C   UNL     1      -1.329   0.799  -0.426  0.00  0.00    +0.000 C 
ATOM      8  C   UNL     1      -0.177   0.566   0.801  0.00  0.00    +0.000 C 
ATOM      9  C   UNL     1       0.404   2.054   0.868  0.00  0.00    +0.000 C 
ATOM     10  C   UNL     1       1.092   0.130  -0.252  0.00  0.00    +0.000 C 
ATOM     11  C   UNL     1       1.105  -1.454   0.087  0.00  0.00    +0.000 C 
ATOM     12  C   UNL     1       1.124  -1.882  -1.337  0.00  0.00    +0.000 C 
ATOM     13  C   UNL     1       2.301  -1.947   0.786  0.00  0.00    +0.000 C 
ATOM     14  C   UNL     1       1.726  -3.265   1.254  0.00  0.00    +0.000 C 
ATOM     15  C   UNL     1       2.186  -4.579   0.683  0.00  0.00    +0.000 C 
ATOM     16  C   UNL     1       0.485  -3.064   1.436  0.00  0.00    +0.000 C 
ATOM     17  O   UNL     1       0.150  -1.836   0.930  0.00  0.00    +0.000 OA
ATOM     18  C   UNL     1      -0.808  -3.896   1.871  0.00  0.00    +0.000 C 
ATOM     19  C   UNL     1      -0.055  -5.358   1.872  0.00  0.00    +0.000 C 
ATOM     20  C   UNL     1      -1.344  -4.012   0.358  0.00  0.00    +0.000 C 
ATOM     21  O   UNL     1      -0.660  -4.570  -0.465  0.00  0.00    +0.000 OA
ATOM     22  C   UNL     1      -2.776  -4.062   0.113  0.00  0.00    +0.000 C 
ATOM     23  C   UNL     1      -3.753  -3.707   1.063  0.00  0.00    +0.000 C 
ENDROOT
BRANCH   1  25
ATOM     24  C   UNL     1      -4.251  -3.624  -3.029  0.00  0.00    +0.000 C 
ATOM     25  C   UNL     1      -4.201  -3.999  -1.819  0.00  0.00    +0.000 C 
ENDBRANCH   1  25
BRANCH  22  26
ATOM     26  O   UNL     1      -2.993  -5.400  -0.303  0.00  0.00    +0.000 OA
ATOM     27  C   UNL     1      -3.449  -6.175   0.745  0.00  0.00    +0.000 C 
ENDBRANCH  22  26
BRANCH   7  28
ATOM     28  O   UNL     1      -2.226   1.728   0.336  0.00  0.00    +0.000 OA
BRANCH  28  29
ATOM     29  C   UNL     1      -1.693   3.075  -0.131  0.00  0.00    +0.000 C 
ATOM     30  C   UNL     1      -3.111   3.566  -0.846  0.00  0.00    +0.000 C 
ATOM     31  C   UNL     1      -3.140   5.026  -0.519  0.00  0.00    +0.000 C 
ATOM     32  C   UNL     1      -1.771   5.649  -0.395  0.00  0.00    +0.000 C 
ATOM     33  C   UNL     1      -3.830   5.166   0.960  0.00  0.00    +0.000 C 
ATOM     34  C   UNL     1      -3.525   3.513   1.324  0.00  0.00    +0.000 C 
ATOM     35  C   UNL     1      -3.532   3.812   2.935  0.00  0.00    +0.000 C 
ATOM     36  O   UNL     1      -2.045   3.717   1.213  0.00  0.00    +0.000 OA
BRANCH  31  37
ATOM     37  O   UNL     1      -3.877   5.806  -1.370  0.00  0.00    +0.000 OA
ATOM     38  C   UNL     1      -3.053   6.573  -2.213  0.00  0.00    +0.000 C 
ENDBRANCH  31  37
BRANCH  33  39
ATOM     39  O   UNL     1      -5.202   4.824   0.439  0.00  0.00    +0.000 OA
ATOM     40  H   UNL     1      -5.143   4.051  -0.144  0.00  0.00    +0.000 HD
ENDBRANCH  33  39
ENDBRANCH  28  29
ENDBRANCH   7  28
BRANCH  10  41
ATOM     41  O   UNL     1       2.186   0.454   0.744  0.00  0.00    +0.000 OA
BRANCH  41  42
ATOM     42  C   UNL     1       2.934   1.383  -0.208  0.00  0.00    +0.000 C 
ATOM     43  O   UNL     1       3.223   0.252  -1.185  0.00  0.00    +0.000 OA
ATOM     44  C   UNL     1       3.927   1.060  -2.260  0.00  0.00    +0.000 C 
ATOM     45  C   UNL     1       4.100  -0.257  -3.235  0.00  0.00    +0.000 C 
ATOM     46  C   UNL     1       5.398   0.800  -1.562  0.00  0.00    +0.000 C 
ATOM     47  C   UNL     1       5.250   2.028  -0.497  0.00  0.00    +0.000 C 
ATOM     48  C   UNL     1       4.407   1.059   0.619  0.00  0.00    +0.000 C 
BRANCH  47  49
ATOM     49  N   UNL     1       6.655   1.773   0.111  0.00  0.00    +0.000 NA
ATOM     50  C   UNL     1       7.592   1.646  -0.974  0.00  0.00    +0.000 C 
BRANCH  49  51
ATOM     51  C   UNL     1       6.669   0.743   1.058  0.00  0.00    +0.000 C 
ATOM     52  C   UNL     1       7.808   1.003   2.009  0.00  0.00    +0.000 C 
ATOM     53  C   UNL     1       6.652  -0.658   0.545  0.00  0.00    +0.000 C 
ENDBRANCH  49  51
ENDBRANCH  47  49
BRANCH  48  54
ATOM     54  O   UNL     1       4.173   2.216   1.531  0.00  0.00    +0.000 OA
ATOM     55  H   UNL     1       3.884   2.983   1.013  0.00  0.00    +0.000 HD
ENDBRANCH  48  54
ENDBRANCH  41  42
ENDBRANCH  10  41
TORSDOF 11
