REMARK  Name = 6436223
REMARK  22 active torsions:
REMARK  status: ('A' for Active; 'I' for Inactive)
REMARK    1  A    between atoms: O_2  and  C_10
REMARK    2  A    between atoms: O_3  and  C_15
REMARK    3  A    between atoms: O_4  and  C_16
REMARK    4  A    between atoms: O_6  and  C_25
REMARK    5  A    between atoms: O_6  and  C_29
REMARK    6  A    between atoms: O_8  and  C_31
REMARK    7  A    between atoms: O_8  and  C_44
REMARK    8  A    between atoms: O_9  and  C_32
REMARK    9  A    between atoms: C_10  and  C_13
REMARK   10  A    between atoms: C_11  and  C_19
REMARK   11  A    between atoms: C_12  and  C_17
REMARK   12  A    between atoms: C_13  and  C_16
REMARK   13  A    between atoms: C_13  and  C_20
REMARK   14  A    between atoms: C_16  and  C_18
REMARK   15  A    between atoms: C_17  and  C_22
REMARK   16  A    between atoms: C_17  and  C_23
REMARK   17  A    between atoms: C_18  and  C_21
REMARK   18  A    between atoms: C_18  and  C_24
REMARK   19  A    between atoms: C_30  and  C_38
REMARK   20  A    between atoms: C_35  and  C_41
REMARK   21  A    between atoms: C_36  and  C_42
REMARK   22  A    between atoms: C_40  and  C_43
REMARK                            x       y       z     vdW  Elec       q    Type
REMARK                         _______ _______ _______ _____ _____    ______ ____
ROOT
ATOM      1  O   UNL     1       0.422   0.721  -1.312  0.00  0.00    +0.000 OA
ATOM      2  O   UNL     1      -0.406  -1.032  -0.050  0.00  0.00    +0.000 OA
ATOM      3  C   UNL     1      -0.287   1.734  -0.565  0.00  0.00    +0.000 C 
ATOM      4  C   UNL     1       0.610   2.992  -0.552  0.00  0.00    +0.000 C 
ATOM      5  C   UNL     1       2.012   2.824  -0.002  0.00  0.00    +0.000 C 
ATOM      6  C   UNL     1       0.407  -0.546  -0.819  0.00  0.00    +0.000 C 
ATOM      7  C   UNL     1       2.451   1.844   0.806  0.00  0.00    +0.000 C 
ATOM      8  C   UNL     1       6.616  -0.532   1.731  0.00  0.00    +0.000 C 
ATOM      9  C   UNL     1       1.683  -1.178  -1.238  0.00  0.00    +0.000 C 
ATOM     10  C   UNL     1       6.919  -0.542   0.197  0.00  0.00    +0.000 C 
ATOM     11  C   UNL     1       3.841   1.686   1.188  0.00  0.00    +0.000 C 
ATOM     12  C   UNL     1       5.856   0.708   2.277  0.00  0.00    +0.000 C 
ATOM     13  C   UNL     1       6.179  -1.662  -0.594  0.00  0.00    +0.000 C 
ATOM     14  C   UNL     1       4.361   0.747   2.005  0.00  0.00    +0.000 C 
ATOM     15  C   UNL     1       2.320  -1.915  -0.313  0.00  0.00    +0.000 C 
ATOM     16  C   UNL     1       7.954  -0.631   2.490  0.00  0.00    +0.000 C 
ATOM     17  C   UNL     1       4.685  -1.458  -0.624  0.00  0.00    +0.000 C 
ATOM     18  C   UNL     1       3.709  -2.355  -0.377  0.00  0.00    +0.000 C 
ATOM     19  C   UNL     1       6.685  -1.753  -2.039  0.00  0.00    +0.000 C 
ATOM     20  C   UNL     1       3.561  -0.271   2.780  0.00  0.00    +0.000 C 
ATOM     21  C   UNL     1       3.920  -3.800  -0.034  0.00  0.00    +0.000 C 
ENDROOT
BRANCH   4  22
ATOM     22  O   UNL     1      -0.011   4.040   0.185  0.00  0.00    +0.000 OA
ATOM     23  C   UNL     1       0.398   5.316  -0.284  0.00  0.00    +0.000 C 
ENDBRANCH   4  22
BRANCH   9  24
ATOM     24  O   UNL     1       2.251  -0.823  -2.442  0.00  0.00    +0.000 OA
ATOM     25  C   UNL     1       1.492  -1.326  -3.526  0.00  0.00    +0.000 C 
ENDBRANCH   9  24
BRANCH  10  26
ATOM     26  O   UNL     1       6.691   0.741  -0.378  0.00  0.00    +0.000 OA
ATOM     27  H   UNL     1       7.082   0.747  -1.267  0.00  0.00    +0.000 HD
ENDBRANCH  10  26
BRANCH   3  28
ATOM     28  C   UNL     1      -1.628   1.974  -1.252  0.00  0.00    +0.000 C 
ATOM     29  C   UNL     1      -1.435   1.975  -2.772  0.00  0.00    +0.000 C 
BRANCH  28  30
ATOM     30  C   UNL     1      -2.681   0.930  -0.794  0.00  0.00    +0.000 C 
BRANCH  30  31
ATOM     31  O   UNL     1      -2.769   0.952   0.633  0.00  0.00    +0.000 OA
ATOM     32  H   UNL     1      -2.942   1.867   0.913  0.00  0.00    +0.000 HD
ENDBRANCH  30  31
BRANCH  30  33
ATOM     33  C   UNL     1      -4.103   1.083  -1.390  0.00  0.00    +0.000 C 
ATOM     34  C   UNL     1      -4.654   2.489  -1.117  0.00  0.00    +0.000 C 
BRANCH  33  36
ATOM     35  O   UNL     1      -5.159   0.192   0.554  0.00  0.00    +0.000 OA
ATOM     36  C   UNL     1      -5.097   0.046  -0.868  0.00  0.00    +0.000 C 
ATOM     37  C   UNL     1      -5.607  -2.183   0.945  0.00  0.00    +0.000 C 
ATOM     38  C   UNL     1      -6.048  -0.728   1.203  0.00  0.00    +0.000 C 
ATOM     39  C   UNL     1      -4.618  -1.363  -1.223  0.00  0.00    +0.000 C 
ATOM     40  C   UNL     1      -5.494  -2.431  -0.569  0.00  0.00    +0.000 C 
ATOM     41  C   UNL     1      -6.550  -3.203   1.591  0.00  0.00    +0.000 C 
BRANCH  38  42
ATOM     42  C   UNL     1      -6.038  -0.358   2.683  0.00  0.00    +0.000 C 
ATOM     43  C   UNL     1      -6.516   1.079   2.882  0.00  0.00    +0.000 C 
ATOM     44  C   UNL     1      -4.643  -0.546   3.276  0.00  0.00    +0.000 C 
ENDBRANCH  38  42
BRANCH  36  45
ATOM     45  O   UNL     1      -6.363   0.274  -1.490  0.00  0.00    +0.000 OA
ATOM     46  H   UNL     1      -6.859  -0.556  -1.556  0.00  0.00    +0.000 HD
ENDBRANCH  36  45
BRANCH  40  47
ATOM     47  O   UNL     1      -4.916  -3.712  -0.804  0.00  0.00    +0.000 OA
ATOM     48  H   UNL     1      -4.862  -3.837  -1.767  0.00  0.00    +0.000 HD
ENDBRANCH  40  47
ENDBRANCH  33  36
ENDBRANCH  30  33
ENDBRANCH  28  30
ENDBRANCH   3  28
TORSDOF 11
