REMARK  Name = 5289054
REMARK  7 active torsions:
REMARK  status: ('A' for Active; 'I' for Inactive)
REMARK    1  A    between atoms: O_1  and  C_11
REMARK    2  A    between atoms: O_1  and  C_24
REMARK    3  A    between atoms: O_4  and  C_27
REMARK    4  A    between atoms: C_7  and  C_17
REMARK    5  A    between atoms: C_24  and  C_25
REMARK    6  A    between atoms: C_25  and  C_26
REMARK    7  A    between atoms: C_26  and  C_27
REMARK                            x       y       z     vdW  Elec       q    Type
REMARK                         _______ _______ _______ _____ _____    ______ ____
ROOT
ATOM      1  O   UNL     1       6.580  -2.811  -0.369  0.00  0.00    +0.000 OA
ATOM      2  C   UNL     1       0.078   1.252  -0.542  0.00  0.00    +0.000 C 
ATOM      3  C   UNL     1      -0.446   1.727   0.829  0.00  0.00    +0.000 C 
ATOM      4  C   UNL     1       1.604   1.149  -0.583  0.00  0.00    +0.000 C 
ATOM      5  C   UNL     1       2.069   0.121   0.491  0.00  0.00    +0.000 C 
ATOM      6  C   UNL     1      -0.041   0.677   1.874  0.00  0.00    +0.000 C 
ATOM      7  C   UNL     1      -1.954   1.849   0.523  0.00  0.00    +0.000 C 
ATOM      8  C   UNL     1      -0.623   2.175  -1.534  0.00  0.00    +0.000 C 
ATOM      9  C   UNL     1       1.480   0.439   1.888  0.00  0.00    +0.000 C 
ATOM     10  C   UNL     1       3.624  -0.003   0.513  0.00  0.00    +0.000 C 
ATOM     11  C   UNL     1      -2.005   2.435  -0.904  0.00  0.00    +0.000 C 
ATOM     12  C   UNL     1       2.115   0.725  -1.965  0.00  0.00    +0.000 C 
ATOM     13  C   UNL     1       0.074   3.121   1.263  0.00  0.00    +0.000 C 
ATOM     14  C   UNL     1       3.638   0.649  -1.978  0.00  0.00    +0.000 C 
ATOM     15  C   UNL     1       4.177  -0.242  -0.886  0.00  0.00    +0.000 C 
ATOM     16  C   UNL     1       4.061  -1.107   1.498  0.00  0.00    +0.000 C 
ATOM     17  C   UNL     1       5.520  -1.495   1.330  0.00  0.00    +0.000 C 
ATOM     18  C   UNL     1       5.122  -1.151  -1.172  0.00  0.00    +0.000 C 
ATOM     19  C   UNL     1       5.784  -1.918  -0.091  0.00  0.00    +0.000 C 
ENDROOT
BRANCH   7  20
ATOM     20  O   UNL     1      -2.582   0.571   0.521  0.00  0.00    +0.000 OA
BRANCH  20  22
ATOM     21  O   UNL     1      -4.570   1.540  -0.135  0.00  0.00    +0.000 OA
ATOM     22  C   UNL     1      -3.906   0.559   0.169  0.00  0.00    +0.000 C 
BRANCH  22  23
ATOM     23  C   UNL     1      -4.418  -0.865   0.220  0.00  0.00    +0.000 C 
BRANCH  23  24
ATOM     24  C   UNL     1      -5.864  -0.998  -0.239  0.00  0.00    +0.000 C 
BRANCH  24  26
ATOM     25  O   UNL     1      -5.606  -3.372   0.131  0.00  0.00    +0.000 OA
ATOM     26  C   UNL     1      -6.314  -2.438  -0.225  0.00  0.00    +0.000 C 
BRANCH  26  27
ATOM     27  O   UNL     1      -7.599  -2.589  -0.628  0.00  0.00    +0.000 OA
ATOM     28  H   UNL     1      -7.883  -3.528  -0.605  0.00  0.00    +0.000 HD
ENDBRANCH  26  27
ENDBRANCH  24  26
ENDBRANCH  23  24
ENDBRANCH  22  23
ENDBRANCH  20  22
ENDBRANCH   7  20
TORSDOF 6
