REMARK  Name = 
REMARK  27 active torsions:
REMARK  status: ('A' for Active; 'I' for Inactive)
REMARK    1  A    between atoms: C_1  and  C_2
REMARK    2  A    between atoms: C_2  and  C_3
REMARK    3  A    between atoms: C_3  and  C_4
REMARK    4  A    between atoms: C_3  and  C_7
REMARK    5  A    between atoms: C_4  and  O_6
REMARK    6  A    between atoms: C_9  and  C_10
REMARK    7  A    between atoms: C_10  and  C_11
REMARK    8  A    between atoms: C_10  and  C_12
REMARK    9  A    between atoms: C_12  and  O_13
REMARK   10  A    between atoms: C_12  and  C_14
REMARK   11  A    between atoms: C_14  and  C_15
REMARK   12  A    between atoms: C_14  and  C_16
REMARK   13  A    between atoms: C_16  and  C_18
REMARK   14  A    between atoms: C_18  and  C_19
REMARK   15  A    between atoms: C_18  and  C_21
REMARK   16  A    between atoms: C_19  and  C_20
REMARK   17  A    between atoms: C_26  and  O_27
REMARK   18  A    between atoms: C_31  and  C_32
REMARK   19  A    between atoms: C_31  and  C_33
REMARK   20  A    between atoms: C_36  and  O_37
REMARK   21  A    between atoms: C_36  and  C_38
REMARK   22  A    between atoms: C_38  and  C_39
REMARK   23  A    between atoms: C_40  and  C_41
REMARK   24  A    between atoms: C_45  and  C_46
REMARK   25  A    between atoms: C_48  and  C_49
REMARK   26  A    between atoms: C_50  and  C_51
REMARK   27  A    between atoms: C_53  and  C_54
REMARK                            x       y       z     vdW  Elec       q    Type
REMARK                         _______ _______ _______ _____ _____    ______ ____
ROOT
ATOM      1  C   UNL     1      -0.091   0.688   0.552  0.00  0.00    +0.000 C 
ATOM      2  O   UNL     1       1.341   1.123   0.478  0.00  0.00    +0.000 OA
ATOM      3  C   UNL     1       1.932   0.047   1.006  0.00  0.00    +0.000 C 
ATOM      4  C   UNL     1       1.904  -1.200   0.254  0.00  0.00    +0.000 C 
ATOM      5  C   UNL     1       3.077  -1.852   0.144  0.00  0.00    +0.000 C 
ATOM      6  C   UNL     1       3.474  -2.112   1.702  0.00  0.00    +0.000 C 
ATOM      7  C   UNL     1       4.030  -0.583   1.870  0.00  0.00    +0.000 C 
ATOM      8  C   UNL     1       4.499  -0.592   3.271  0.00  0.00    +0.000 C 
ATOM      9  C   UNL     1       5.977  -0.174   3.133  0.00  0.00    +0.000 C 
ATOM     10  C   UNL     1       5.724   0.577   1.896  0.00  0.00    +0.000 C 
ATOM     11  C   UNL     1       4.938   1.799   2.179  0.00  0.00    +0.000 C 
ATOM     12  O   UNL     1       5.173  -0.405   1.140  0.00  0.00    +0.000 OA
ATOM     13  O   UNL     1       3.212   0.297   1.361  0.00  0.00    +0.000 OA
ATOM     14  C   UNL     1       1.459  -0.226   2.545  0.00  0.00    +0.000 C 
ATOM     15  C   UNL     1       0.109  -1.087   2.188  0.00  0.00    +0.000 C 
ATOM     16  C   UNL     1       0.845   1.230   2.839  0.00  0.00    +0.000 C 
ATOM     17  C   UNL     1      -0.301   1.752   1.869  0.00  0.00    +0.000 C 
ATOM     18  C   UNL     1      -1.461   0.909   2.647  0.00  0.00    +0.000 C 
ENDROOT
BRANCH  10  19
ATOM     19  C   UNL     1       7.083   1.152   1.214  0.00  0.00    +0.000 C 
ATOM     20  C   UNL     1       8.011  -0.148   1.653  0.00  0.00    +0.000 C 
ATOM     21  C   UNL     1       9.207   0.259   0.781  0.00  0.00    +0.000 C 
ATOM     22  C   UNL     1       8.780  -0.043  -0.651  0.00  0.00    +0.000 C 
ATOM     23  C   UNL     1       7.303  -0.679  -0.289  0.00  0.00    +0.000 C 
ATOM     24  C   UNL     1       6.868  -0.814  -1.868  0.00  0.00    +0.000 C 
ATOM     25  O   UNL     1       6.678   0.689  -0.174  0.00  0.00    +0.000 OA
BRANCH  22  26
ATOM     26  O   UNL     1       9.509  -1.060  -1.214  0.00  0.00    +0.000 OA
ATOM     27  H   UNL     1      10.393  -0.735  -1.446  0.00  0.00    +0.000 HD
ENDBRANCH  22  26
BRANCH  22  28
ATOM     28  C   UNL     1       8.589   1.157  -1.489  0.00  0.00    +0.000 C 
ATOM     29  C   UNL     1       8.581   0.932  -2.958  0.00  0.00    +0.000 C 
ENDBRANCH  22  28
ENDBRANCH  10  19
BRANCH   6  30
ATOM     30  O   UNL     1       4.832  -2.695   1.342  0.00  0.00    +0.000 OA
ATOM     31  H   UNL     1       5.262  -2.130   0.681  0.00  0.00    +0.000 HD
ENDBRANCH   6  30
BRANCH   1  32
ATOM     32  C   UNL     1      -0.689   1.808  -0.585  0.00  0.00    +0.000 C 
BRANCH  32  33
ATOM     33  C   UNL     1      -1.652   0.721  -1.262  0.00  0.00    +0.000 C 
ATOM     34  O   UNL     1      -1.084  -0.314  -1.627  0.00  0.00    +0.000 OA
BRANCH  33  35
ATOM     35  C   UNL     1      -2.822   0.449  -0.176  0.00  0.00    +0.000 C 
ATOM     36  C   UNL     1      -3.892   1.571  -0.606  0.00  0.00    +0.000 C 
BRANCH  35  37
ATOM     37  C   UNL     1      -3.403  -0.974  -0.901  0.00  0.00    +0.000 C 
BRANCH  37  38
ATOM     38  C   UNL     1      -4.387  -0.540  -2.199  0.00  0.00    +0.000 C 
ATOM     39  C   UNL     1      -3.697   0.809  -2.736  0.00  0.00    +0.000 C 
BRANCH  38  42
ATOM     40  C   UNL     1      -7.881  -0.966  -1.125  0.00  0.00    +0.000 C 
ATOM     41  O   UNL     1      -6.485  -1.145  -1.622  0.00  0.00    +0.000 OA
ATOM     42  C   UNL     1      -5.725   0.108  -1.379  0.00  0.00    +0.000 C 
ATOM     43  C   UNL     1      -6.149   0.959  -2.804  0.00  0.00    +0.000 C 
ATOM     44  C   UNL     1      -6.247  -0.310  -3.811  0.00  0.00    +0.000 C 
ATOM     45  C   UNL     1      -7.729   1.116  -2.496  0.00  0.00    +0.000 C 
ATOM     46  C   UNL     1      -8.299  -0.380  -2.671  0.00  0.00    +0.000 C 
ATOM     47  C   UNL     1      -9.845  -0.008  -2.369  0.00  0.00    +0.000 C 
BRANCH  40  48
ATOM     48  C   UNL     1      -7.660   0.520  -0.329  0.00  0.00    +0.000 C 
BRANCH  48  50
ATOM     49  C   UNL     1      -9.570   0.733   0.576  0.00  0.00    +0.000 C 
ATOM     50  C   UNL     1      -9.231   0.873  -0.131  0.00  0.00    +0.000 C 
ENDBRANCH  48  50
BRANCH  48  51
ATOM     51  C   UNL     1      -7.650  -0.164   1.109  0.00  0.00    +0.000 C 
ATOM     52  O   UNL     1      -7.334   0.761   1.925  0.00  0.00    +0.000 OA
BRANCH  51  53
ATOM     53  O   UNL     1      -6.948  -1.330   1.281  0.00  0.00    +0.000 OA
ATOM     54  H   UNL     1      -7.116  -2.065   0.724  0.00  0.00    +0.000 HD
ENDBRANCH  51  53
ENDBRANCH  48  51
ENDBRANCH  40  48
ENDBRANCH  38  42
ENDBRANCH  37  38
BRANCH  37  55
ATOM     55  O   UNL     1      -4.481  -1.099   0.152  0.00  0.00    +0.000 OA
ATOM     56  H   UNL     1      -4.990  -0.274   0.194  0.00  0.00    +0.000 HD
ENDBRANCH  37  55
ENDBRANCH  35  37
ENDBRANCH  33  35
ENDBRANCH  32  33
BRANCH  32  57
ATOM     57  C   UNL     1       0.501   1.607  -1.673  0.00  0.00    +0.000 C 
ATOM     58  C   UNL     1       1.077   2.959  -1.962  0.00  0.00    +0.000 C 
ENDBRANCH  32  57
ENDBRANCH   1  32
TORSDOF 16
