REMARK  Name = 
REMARK  19 active torsions:
REMARK  status: ('A' for Active; 'I' for Inactive)
REMARK    1  A    between atoms: C_1  and  C_2
REMARK    2  A    between atoms: C_2  and  C_3
REMARK    3  A    between atoms: C_8  and  O_9
REMARK    4  A    between atoms: C_10  and  C_11
REMARK    5  A    between atoms: C_12  and  O_13
REMARK    6  A    between atoms: O_13  and  C_14
REMARK    7  A    between atoms: C_16  and  C_17
REMARK    8  A    between atoms: C_18  and  O_19
REMARK    9  A    between atoms: C_20  and  N_21
REMARK   10  A    between atoms: N_21  and  C_22
REMARK   11  A    between atoms: N_21  and  C_23
REMARK   12  A    between atoms: C_24  and  O_25
REMARK   13  A    between atoms: C_26  and  C_27
REMARK   14  A    between atoms: C_27  and  C_28
REMARK   15  A    between atoms: C_28  and  N_29
REMARK   16  A    between atoms: C_36  and  C_37
REMARK   17  A    between atoms: C_42  and  C_43
REMARK   18  A    between atoms: C_45  and  C_46
REMARK   19  A    between atoms: C_46  and  N_47
REMARK                            x       y       z     vdW  Elec       q    Type
REMARK                         _______ _______ _______ _____ _____    ______ ____
ROOT
ATOM      1  C   UNL     1       3.951  -0.858  -1.695  0.00  0.00    +0.000 C 
ATOM      2  O   UNL     1       3.359  -2.085  -2.442  0.00  0.00    +0.000 OA
ATOM      3  C   UNL     1       2.058  -1.791  -2.780  0.00  0.00    +0.000 C 
ATOM      4  O   UNL     1       1.607  -2.132  -3.913  0.00  0.00    +0.000 OA
ATOM      5  C   UNL     1       1.176  -1.786  -1.638  0.00  0.00    +0.000 C 
ATOM      6  C   UNL     1       0.842  -0.202  -1.218  0.00  0.00    +0.000 C 
ATOM      7  C   UNL     1      -0.863  -0.468  -1.401  0.00  0.00    +0.000 C 
ATOM      8  C   UNL     1      -1.096   0.431  -2.708  0.00  0.00    +0.000 C 
ATOM      9  C   UNL     1      -1.293   0.789  -0.312  0.00  0.00    +0.000 C 
ATOM     10  C   UNL     1      -2.082  -0.244   0.840  0.00  0.00    +0.000 C 
ATOM     11  C   UNL     1      -1.320   0.336   2.176  0.00  0.00    +0.000 C 
ATOM     12  C   UNL     1       0.088   0.954   1.565  0.00  0.00    +0.000 C 
ATOM     13  C   UNL     1      -0.365   2.516   1.953  0.00  0.00    +0.000 C 
ATOM     14  C   UNL     1       0.943   0.698   2.931  0.00  0.00    +0.000 C 
ATOM     15  O   UNL     1       0.829   1.511   3.848  0.00  0.00    +0.000 OA
ATOM     16  C   UNL     1       2.278   0.369   2.366  0.00  0.00    +0.000 C 
ATOM     17  C   UNL     1       2.356  -0.907   2.025  0.00  0.00    +0.000 C 
ATOM     18  C   UNL     1       3.625  -1.595   1.741  0.00  0.00    +0.000 C 
ATOM     19  C   UNL     1       4.251  -2.397   2.847  0.00  0.00    +0.000 C 
ATOM     20  C   UNL     1       4.267  -0.991   0.765  0.00  0.00    +0.000 C 
ATOM     21  C   UNL     1       4.675  -1.914  -0.505  0.00  0.00    +0.000 C 
ENDROOT
BRANCH   1  23
ATOM     22  C   UNL     1       4.747  -0.467  -3.867  0.00  0.00    +0.000 C 
ATOM     23  C   UNL     1       5.245  -0.897  -2.743  0.00  0.00    +0.000 C 
ENDBRANCH   1  23
BRANCH   6  24
ATOM     24  O   UNL     1       1.085   0.312  -2.650  0.00  0.00    +0.000 OA
ATOM     25  H   UNL     1       0.636  -0.270  -3.283  0.00  0.00    +0.000 HD
ENDBRANCH   6  24
BRANCH   9  26
ATOM     26  O   UNL     1      -2.606   1.017  -1.046  0.00  0.00    +0.000 OA
BRANCH  26  27
ATOM     27  C   UNL     1      -3.537   1.414   0.132  0.00  0.00    +0.000 C 
ATOM     28  O   UNL     1      -4.746   0.715  -0.576  0.00  0.00    +0.000 OA
ATOM     29  C   UNL     1      -5.745   1.008   0.550  0.00  0.00    +0.000 C 
ATOM     30  C   UNL     1      -6.942   0.159  -0.239  0.00  0.00    +0.000 C 
ATOM     31  C   UNL     1      -6.244   2.477  -0.256  0.00  0.00    +0.000 C 
ATOM     32  C   UNL     1      -5.012   3.358   0.562  0.00  0.00    +0.000 C 
ATOM     33  C   UNL     1      -3.891   2.952  -0.671  0.00  0.00    +0.000 C 
BRANCH  32  34
ATOM     34  N   UNL     1      -5.425   4.672  -0.177  0.00  0.00    +0.000 NA
ATOM     35  C   UNL     1      -4.317   5.585  -0.063  0.00  0.00    +0.000 C 
ATOM     36  C   UNL     1      -6.522   5.247   0.598  0.00  0.00    +0.000 C 
ENDBRANCH  32  34
BRANCH  31  37
ATOM     37  O   UNL     1      -7.244   2.777   0.839  0.00  0.00    +0.000 OA
ATOM     38  H   UNL     1      -6.829   2.634   1.704  0.00  0.00    +0.000 HD
ENDBRANCH  31  37
BRANCH  33  39
ATOM     39  O   UNL     1      -2.762   3.609   0.078  0.00  0.00    +0.000 OA
ATOM     40  H   UNL     1      -2.798   3.349   1.012  0.00  0.00    +0.000 HD
ENDBRANCH  33  39
ENDBRANCH  26  27
ENDBRANCH   9  26
BRANCH  10  41
ATOM     41  C   UNL     1      -1.069  -1.520   0.701  0.00  0.00    +0.000 C 
BRANCH  41  42
ATOM     42  C   UNL     1      -2.034  -2.525   0.076  0.00  0.00    +0.000 C 
BRANCH  42  43
ATOM     43  N   UNL     1      -2.879  -3.183   0.992  0.00  0.00    +0.000 NA
ATOM     44  C   UNL     1      -4.182  -2.663   1.193  0.00  0.00    +0.000 C 
ATOM     45  C   UNL     1      -5.154  -2.873   0.072  0.00  0.00    +0.000 C 
ATOM     46  C   UNL     1      -4.837  -4.045  -0.809  0.00  0.00    +0.000 C 
ATOM     47  C   UNL     1      -4.149  -5.072   0.042  0.00  0.00    +0.000 C 
ATOM     48  C   UNL     1      -2.865  -4.598   0.645  0.00  0.00    +0.000 C 
ENDBRANCH  42  43
ENDBRANCH  41  42
ENDBRANCH  10  41
BRANCH  21  49
ATOM     49  C   UNL     1       6.188  -1.319  -0.657  0.00  0.00    +0.000 C 
BRANCH  49  50
ATOM     50  N   UNL     1       6.420  -0.172   0.095  0.00  0.00    +0.000 NA
ATOM     51  C   UNL     1       7.276   0.666  -0.751  0.00  0.00    +0.000 C 
ATOM     52  C   UNL     1       7.799   1.871  -0.059  0.00  0.00    +0.000 C 
ATOM     53  C   UNL     1       8.852   1.334   0.910  0.00  0.00    +0.000 C 
ATOM     54  C   UNL     1       8.001   0.517   1.875  0.00  0.00    +0.000 C 
ATOM     55  C   UNL     1       7.262  -0.589   1.218  0.00  0.00    +0.000 C 
ENDBRANCH  49  50
ENDBRANCH  21  49
TORSDOF 12
