REMARK  Name = 
REMARK  30 active torsions:
REMARK  status: ('A' for Active; 'I' for Inactive)
REMARK    1  A    between atoms: C_1  and  C_2
REMARK    2  A    between atoms: C_2  and  C_3
REMARK    3  A    between atoms: C_8  and  O_9
REMARK    4  A    between atoms: C_10  and  C_11
REMARK    5  A    between atoms: C_12  and  O_13
REMARK    6  A    between atoms: O_13  and  C_14
REMARK    7  A    between atoms: C_16  and  C_17
REMARK    8  A    between atoms: C_18  and  O_19
REMARK    9  A    between atoms: O_19  and  C_20
REMARK   10  A    between atoms: C_22  and  C_23
REMARK   11  A    between atoms: C_22  and  O_24
REMARK   12  A    between atoms: C_25  and  O_26
REMARK   13  A    between atoms: C_27  and  C_28
REMARK   14  A    between atoms: C_30  and  N_31
REMARK   15  A    between atoms: N_31  and  C_32
REMARK   16  A    between atoms: N_31  and  C_33
REMARK   17  A    between atoms: C_34  and  O_35
REMARK   18  A    between atoms: C_36  and  C_37
REMARK   19  A    between atoms: C_37  and  C_38
REMARK   20  A    between atoms: C_41  and  C_42
REMARK   21  A    between atoms: C_47  and  C_48
REMARK   22  A    between atoms: C_50  and  C_51
REMARK   23  A    between atoms: C_51  and  O_52
REMARK   24  A    between atoms: O_52  and  C_53
REMARK   25  A    between atoms: C_55  and  C_56
REMARK   26  A    between atoms: C_57  and  O_58
REMARK   27  A    between atoms: C_59  and  O_60
REMARK   28  A    between atoms: O_60  and  C_61
REMARK   29  A    between atoms: C_62  and  O_63
REMARK   30  A    between atoms: O_63  and  C_64
REMARK                            x       y       z     vdW  Elec       q    Type
REMARK                         _______ _______ _______ _____ _____    ______ ____
ROOT
ATOM      1  C   UNL     1      -3.833  -0.755  -0.826  0.00  0.00    +0.000 C 
ATOM      2  O   UNL     1      -3.156   0.040   0.284  0.00  0.00    +0.000 OA
ATOM      3  C   UNL     1      -2.278   1.034   0.002  0.00  0.00    +0.000 C 
ATOM      4  O   UNL     1      -1.573   1.400   0.997  0.00  0.00    +0.000 OA
ATOM      5  C   UNL     1      -1.686   1.170  -1.310  0.00  0.00    +0.000 C 
ATOM      6  C   UNL     1      -0.820  -0.184  -1.645  0.00  0.00    +0.000 C 
ATOM      7  C   UNL     1       0.290   0.102  -0.384  0.00  0.00    +0.000 C 
ATOM      8  C   UNL     1       1.268   1.151  -1.097  0.00  0.00    +0.000 C 
ATOM      9  C   UNL     1       1.212  -1.257  -0.782  0.00  0.00    +0.000 C 
ATOM     10  C   UNL     1       0.812  -2.188   0.598  0.00  0.00    +0.000 C 
ATOM     11  C   UNL     1      -0.756  -2.277   0.268  0.00  0.00    +0.000 C 
ATOM     12  C   UNL     1      -1.010  -3.747  -0.385  0.00  0.00    +0.000 C 
ATOM     13  C   UNL     1       0.476  -4.382  -0.116  0.00  0.00    +0.000 C 
ATOM     14  C   UNL     1      -1.645  -4.353   0.974  0.00  0.00    +0.000 C 
ATOM     15  O   UNL     1      -1.461  -5.615   1.067  0.00  0.00    +0.000 OA
ATOM     16  C   UNL     1      -3.079  -4.054   0.742  0.00  0.00    +0.000 C 
ATOM     17  C   UNL     1      -3.385  -2.875   1.164  0.00  0.00    +0.000 C 
ATOM     18  C   UNL     1      -4.724  -2.405   1.575  0.00  0.00    +0.000 C 
ATOM     19  C   UNL     1      -5.589  -3.177   2.546  0.00  0.00    +0.000 C 
ATOM     20  C   UNL     1      -5.311  -2.226   0.406  0.00  0.00    +0.000 C 
ATOM     21  C   UNL     1      -5.329  -0.679   0.002  0.00  0.00    +0.000 C 
ENDROOT
BRANCH   1  23
ATOM     22  C   UNL     1      -4.348   0.148  -2.928  0.00  0.00    +0.000 C 
ATOM     23  C   UNL     1      -4.158   0.583  -1.709  0.00  0.00    +0.000 C 
ENDBRANCH   1  23
BRANCH   6  24
ATOM     24  O   UNL     1      -0.074   0.529  -2.751  0.00  0.00    +0.000 OA
ATOM     25  H   UNL     1       0.222   1.397  -2.434  0.00  0.00    +0.000 HD
ENDBRANCH   6  24
BRANCH   9  26
ATOM     26  O   UNL     1       2.422  -0.758  -0.052  0.00  0.00    +0.000 OA
BRANCH  26  27
ATOM     27  C   UNL     1       3.522  -1.562  -0.752  0.00  0.00    +0.000 C 
ATOM     28  O   UNL     1       4.305  -1.797   0.516  0.00  0.00    +0.000 OA
ATOM     29  C   UNL     1       5.536  -2.070  -0.297  0.00  0.00    +0.000 C 
ATOM     30  C   UNL     1       6.148  -3.071   0.856  0.00  0.00    +0.000 C 
ATOM     31  C   UNL     1       6.247  -0.719   0.451  0.00  0.00    +0.000 C 
ATOM     32  C   UNL     1       5.155   0.496  -0.001  0.00  0.00    +0.000 C 
ATOM     33  C   UNL     1       4.255  -0.102  -1.295  0.00  0.00    +0.000 C 
BRANCH  32  34
ATOM     34  N   UNL     1       4.133   0.304   1.174  0.00  0.00    +0.000 NA
ATOM     35  C   UNL     1       3.623   1.683   1.220  0.00  0.00    +0.000 C 
ATOM     36  C   UNL     1       4.978   0.316   2.375  0.00  0.00    +0.000 C 
ENDBRANCH  32  34
BRANCH  33  37
ATOM     37  O   UNL     1       5.376  -0.748  -2.080  0.00  0.00    +0.000 OA
ATOM     38  H   UNL     1       5.858  -1.365  -1.507  0.00  0.00    +0.000 HD
ENDBRANCH  33  37
BRANCH  31  39
ATOM     39  O   UNL     1       7.214  -0.430  -0.663  0.00  0.00    +0.000 OA
BRANCH  39  40
ATOM     40  C   UNL     1       7.188   1.107  -0.708  0.00  0.00    +0.000 C 
ATOM     41  C   UNL     1       8.171   1.313   0.626  0.00  0.00    +0.000 C 
ATOM     42  C   UNL     1       8.437   2.761   0.440  0.00  0.00    +0.000 C 
ATOM     43  C   UNL     1       7.287   3.551  -0.161  0.00  0.00    +0.000 C 
ATOM     44  C   UNL     1       9.496   2.878  -0.799  0.00  0.00    +0.000 C 
ATOM     45  C   UNL     1       9.569   1.164  -0.981  0.00  0.00    +0.000 C 
ATOM     46  C   UNL     1      10.445   1.332  -2.355  0.00  0.00    +0.000 C 
ATOM     47  O   UNL     1       8.293   1.133  -1.760  0.00  0.00    +0.000 OA
BRANCH  42  48
ATOM     48  O   UNL     1       8.893   3.466   1.498  0.00  0.00    +0.000 OA
ATOM     49  H   UNL     1       8.262   3.394   2.231  0.00  0.00    +0.000 HD
ENDBRANCH  42  48
BRANCH  44  50
ATOM     50  O   UNL     1      10.713   2.873   0.093  0.00  0.00    +0.000 OA
ATOM     51  H   UNL     1      10.626   2.168   0.754  0.00  0.00    +0.000 HD
ENDBRANCH  44  50
ENDBRANCH  39  40
ENDBRANCH  31  39
ENDBRANCH  26  27
ENDBRANCH   9  26
BRANCH  10  52
ATOM     52  C   UNL     1       0.636  -0.964   1.647  0.00  0.00    +0.000 C 
BRANCH  52  53
ATOM     53  C   UNL     1       1.179  -1.378   2.935  0.00  0.00    +0.000 C 
ATOM     54  O   UNL     1       2.316  -1.143   3.290  0.00  0.00    +0.000 OA
ENDBRANCH  52  53
ENDBRANCH  10  52
BRANCH  21  55
ATOM     55  C   UNL     1      -6.200  -0.970  -1.335  0.00  0.00    +0.000 C 
BRANCH  55  56
ATOM     56  O   UNL     1      -7.507  -0.564  -0.991  0.00  0.00    +0.000 OA
BRANCH  56  57
ATOM     57  C   UNL     1      -7.105   0.811  -0.471  0.00  0.00    +0.000 C 
ATOM     58  O   UNL     1      -7.906   0.617   0.814  0.00  0.00    +0.000 OA
ATOM     59  C   UNL     1      -7.230   1.868   1.331  0.00  0.00    +0.000 C 
ATOM     60  C   UNL     1      -7.841   1.632   2.831  0.00  0.00    +0.000 C 
ATOM     61  C   UNL     1      -8.582   2.820   0.906  0.00  0.00    +0.000 C 
ATOM     62  C   UNL     1      -8.138   3.124  -0.717  0.00  0.00    +0.000 C 
ATOM     63  C   UNL     1      -8.456   1.534  -1.252  0.00  0.00    +0.000 C 
BRANCH  61  64
ATOM     64  O   UNL     1      -7.885   4.066   1.362  0.00  0.00    +0.000 OA
ATOM     65  H   UNL     1      -6.993   4.095   0.983  0.00  0.00    +0.000 HD
ENDBRANCH  61  64
BRANCH  62  66
ATOM     66  O   UNL     1      -6.651   3.017  -0.563  0.00  0.00    +0.000 OA
ATOM     67  C   UNL     1      -6.090   3.829  -1.531  0.00  0.00    +0.000 C 
ENDBRANCH  62  66
BRANCH  63  68
ATOM     68  O   UNL     1      -7.664   1.751  -2.503  0.00  0.00    +0.000 OA
ATOM     69  C   UNL     1      -8.125   0.845  -3.441  0.00  0.00    +0.000 C 
ENDBRANCH  63  68
ENDBRANCH  56  57
ENDBRANCH  55  56
ENDBRANCH  21  55
TORSDOF 18
