REMARK  Name = 68783
REMARK  5 active torsions:
REMARK  status: ('A' for Active; 'I' for Inactive)
REMARK    1  A    between atoms: O_1  and  C_8
REMARK    2  A    between atoms: C_4  and  C_14
REMARK    3  A    between atoms: C_8  and  C_17
REMARK    4  A    between atoms: C_17  and  C_22
REMARK    5  A    between atoms: C_19  and  C_23
REMARK                            x       y       z     vdW  Elec       q    Type
REMARK                         _______ _______ _______ _____ _____    ______ ____
ROOT
ATOM      1  O   UNL     1       6.287  -0.847  -0.413  0.00  0.00    +0.000 OA
ATOM      2  C   UNL     1      -2.203  -0.309   0.228  0.00  0.00    +0.000 C 
ATOM      3  C   UNL     1      -1.288   0.889  -0.138  0.00  0.00    +0.000 C 
ATOM      4  C   UNL     1       0.117   0.757   0.464  0.00  0.00    +0.000 C 
ATOM      5  C   UNL     1       0.768  -0.533  -0.111  0.00  0.00    +0.000 C 
ATOM      6  C   UNL     1      -3.522   0.163  -0.436  0.00  0.00    +0.000 C 
ATOM      7  C   UNL     1      -1.564  -1.584  -0.348  0.00  0.00    +0.000 C 
ATOM      8  C   UNL     1      -2.142   2.103   0.224  0.00  0.00    +0.000 C 
ATOM      9  C   UNL     1      -0.116  -1.775   0.141  0.00  0.00    +0.000 C 
ATOM     10  C   UNL     1      -3.583   1.675  -0.123  0.00  0.00    +0.000 C 
ATOM     11  C   UNL     1       2.217  -0.653   0.434  0.00  0.00    +0.000 C 
ATOM     12  C   UNL     1      -2.409  -0.487   1.758  0.00  0.00    +0.000 C 
ATOM     13  C   UNL     1       1.001   1.947   0.201  0.00  0.00    +0.000 C 
ATOM     14  C   UNL     1       3.043   0.579   0.037  0.00  0.00    +0.000 C 
ATOM     15  C   UNL     1       2.890  -1.956  -0.030  0.00  0.00    +0.000 C 
ATOM     16  C   UNL     1       2.329   1.869  -0.009  0.00  0.00    +0.000 C 
ATOM     17  C   UNL     1       4.351  -2.006   0.381  0.00  0.00    +0.000 C 
ATOM     18  C   UNL     1       4.355   0.482  -0.250  0.00  0.00    +0.000 C 
ATOM     19  C   UNL     1       3.106   3.137  -0.260  0.00  0.00    +0.000 C 
ATOM     20  C   UNL     1       5.088  -0.803  -0.140  0.00  0.00    +0.000 C 
ENDROOT
BRANCH   6  22
ATOM     21  O   UNL     1      -5.390  -0.228   0.998  0.00  0.00    +0.000 OA
ATOM     22  C   UNL     1      -4.737  -0.589   0.020  0.00  0.00    +0.000 C 
ATOM     23  C   UNL     1      -5.119  -1.805  -0.779  0.00  0.00    +0.000 C 
ENDBRANCH   6  22
BRANCH   6  24
ATOM     24  O   UNL     1      -3.480  -0.025  -1.847  0.00  0.00    +0.000 OA
ATOM     25  H   UNL     1      -3.277  -0.948  -2.064  0.00  0.00    +0.000 HD
ENDBRANCH   6  24
TORSDOF 2
