REMARK  Name = 
REMARK  21 active torsions:
REMARK  status: ('A' for Active; 'I' for Inactive)
REMARK    1  A    between atoms: C_1  and  C_2
REMARK    2  A    between atoms: C_2  and  C_3
REMARK    3  A    between atoms: C_3  and  O_4
REMARK    4  A    between atoms: C_3  and  C_5
REMARK    5  A    between atoms: C_5  and  C_6
REMARK    6  A    between atoms: C_5  and  C_7
REMARK    7  A    between atoms: C_9  and  C_10
REMARK    8  A    between atoms: C_10  and  C_11
REMARK    9  A    between atoms: C_11  and  C_12
REMARK   10  A    between atoms: C_11  and  O_13
REMARK   11  A    between atoms: C_11  and  C_14
REMARK   12  A    between atoms: C_15  and  C_16
REMARK   13  A    between atoms: C_17  and  C_18
REMARK   14  A    between atoms: C_17  and  C_19
REMARK   15  A    between atoms: C_24  and  O_25
REMARK   16  A    between atoms: C_28  and  C_29
REMARK   17  A    between atoms: C_28  and  O_30
REMARK   18  A    between atoms: C_31  and  O_32
REMARK   19  A    between atoms: O_32  and  C_33
REMARK   20  A    between atoms: N_38  and  C_39
REMARK   21  A    between atoms: C_50  and  C_51
REMARK                            x       y       z     vdW  Elec       q    Type
REMARK                         _______ _______ _______ _____ _____    ______ ____
ROOT
ATOM      1  C   UNL     1       0.793  -2.739  -0.266  0.00  0.00    +0.000 C 
ATOM      2  O   UNL     1       0.971  -1.232  -0.036  0.00  0.00    +0.000 OA
ATOM      3  C   UNL     1       1.460  -1.133   1.285  0.00  0.00    +0.000 C 
ATOM      4  O   UNL     1       2.182  -0.153   1.640  0.00  0.00    +0.000 OA
ATOM      5  C   UNL     1       0.464  -1.595   2.308  0.00  0.00    +0.000 C 
ATOM      6  C   UNL     1      -0.408  -0.246   2.680  0.00  0.00    +0.000 C 
ATOM      7  C   UNL     1      -1.836  -1.064   2.580  0.00  0.00    +0.000 C 
ATOM      8  C   UNL     1      -2.714  -0.026   1.885  0.00  0.00    +0.000 C 
ATOM      9  C   UNL     1      -2.479  -0.136   0.433  0.00  0.00    +0.000 C 
ATOM     10  C   UNL     1      -3.533   0.357  -0.471  0.00  0.00    +0.000 C 
ATOM     11  C   UNL     1      -2.342  -1.761   0.221  0.00  0.00    +0.000 C 
ATOM     12  C   UNL     1      -2.226  -1.586  -1.391  0.00  0.00    +0.000 C 
ATOM     13  C   UNL     1      -0.917  -1.428  -1.544  0.00  0.00    +0.000 C 
ATOM     14  C   UNL     1       0.071  -2.633  -1.821  0.00  0.00    +0.000 C 
ATOM     15  C   UNL     1      -0.989  -3.803  -1.429  0.00  0.00    +0.000 C 
ENDROOT
BRANCH   1  17
ATOM     16  C   UNL     1       3.264  -2.352  -0.305  0.00  0.00    +0.000 C 
ATOM     17  C   UNL     1       2.254  -2.905  -0.921  0.00  0.00    +0.000 C 
ATOM     18  C   UNL     1       2.488  -4.343  -1.282  0.00  0.00    +0.000 C 
BRANCH  16  20
ATOM     19  C   UNL     1       5.179  -1.304  -1.294  0.00  0.00    +0.000 C 
ATOM     20  C   UNL     1       4.583  -2.427  -0.950  0.00  0.00    +0.000 C 
BRANCH  19  21
ATOM     21  C   UNL     1       6.611  -1.176  -1.595  0.00  0.00    +0.000 C 
ATOM     22  C   UNL     1       6.978  -1.769  -2.940  0.00  0.00    +0.000 C 
BRANCH  21  23
ATOM     23  O   UNL     1       7.357  -1.821  -0.596  0.00  0.00    +0.000 OA
ATOM     24  H   UNL     1       8.303  -1.737  -0.795  0.00  0.00    +0.000 HD
ENDBRANCH  21  23
BRANCH  21  25
ATOM     25  C   UNL     1       7.041   0.267  -1.650  0.00  0.00    +0.000 C 
BRANCH  25  28
ATOM     26  C   UNL     1       8.489   1.659  -0.282  0.00  0.00    +0.000 C 
ATOM     27  O   UNL     1       8.554   0.077   0.189  0.00  0.00    +0.000 OA
ATOM     28  C   UNL     1       7.070   0.770  -0.073  0.00  0.00    +0.000 C 
BRANCH  26  29
ATOM     29  C   UNL     1       8.646   2.357   1.270  0.00  0.00    +0.000 C 
ATOM     30  C   UNL     1       7.725   1.404   2.158  0.00  0.00    +0.000 C 
BRANCH  29  31
ATOM     31  C   UNL     1       7.362   3.413   0.926  0.00  0.00    +0.000 C 
BRANCH  31  33
ATOM     32  C   UNL     1       9.448   4.617   0.842  0.00  0.00    +0.000 C 
ATOM     33  C   UNL     1       8.358   4.418   0.098  0.00  0.00    +0.000 C 
ENDBRANCH  31  33
BRANCH  31  34
ATOM     34  O   UNL     1       7.569   4.164   2.220  0.00  0.00    +0.000 OA
ATOM     35  H   UNL     1       8.514   4.344   2.342  0.00  0.00    +0.000 HD
ENDBRANCH  31  34
ENDBRANCH  29  31
ENDBRANCH  26  29
ENDBRANCH  25  28
ENDBRANCH  21  25
ENDBRANCH  19  21
ENDBRANCH  16  20
ENDBRANCH   1  17
BRANCH   6  36
ATOM     36  O   UNL     1      -0.288  -0.513   4.169  0.00  0.00    +0.000 OA
ATOM     37  H   UNL     1      -0.481  -1.447   4.347  0.00  0.00    +0.000 HD
ENDBRANCH   6  36
BRANCH   9  38
ATOM     38  O   UNL     1      -1.344   0.462   0.013  0.00  0.00    +0.000 OA
ATOM     39  H   UNL     1      -1.419   1.421   0.135  0.00  0.00    +0.000 HD
ENDBRANCH   9  38
BRANCH  11  40
ATOM     40  O   UNL     1      -3.860  -1.947   0.304  0.00  0.00    +0.000 OA
BRANCH  40  41
ATOM     41  C   UNL     1      -4.654  -2.100  -0.750  0.00  0.00    +0.000 C 
ATOM     42  O   UNL     1      -4.161  -2.276  -1.869  0.00  0.00    +0.000 OA
ATOM     43  N   UNL     1      -6.017  -1.682  -0.588  0.00  0.00    +0.000 N 
ATOM     44  C   UNL     1      -6.612  -1.518   0.742  0.00  0.00    +0.000 C 
ATOM     45  C   UNL     1      -7.043  -0.084   0.961  0.00  0.00    +0.000 C 
ATOM     46  N   UNL     1      -6.760   0.675  -0.255  0.00  0.00    +0.000 NA
ATOM     47  C   UNL     1      -7.535   0.019  -1.290  0.00  0.00    +0.000 C 
ATOM     48  C   UNL     1      -6.858  -1.297  -1.685  0.00  0.00    +0.000 C 
BRANCH  46  49
ATOM     49  C   UNL     1      -7.140   2.053  -0.183  0.00  0.00    +0.000 C 
ATOM     50  C   UNL     1      -6.390   2.877   0.803  0.00  0.00    +0.000 C 
ATOM     51  C   UNL     1      -5.883   4.166   0.167  0.00  0.00    +0.000 C 
ATOM     52  C   UNL     1      -6.949   4.899  -0.587  0.00  0.00    +0.000 C 
ATOM     53  C   UNL     1      -8.337   4.649  -0.070  0.00  0.00    +0.000 C 
ATOM     54  C   UNL     1      -9.017   3.508  -0.813  0.00  0.00    +0.000 C 
ATOM     55  C   UNL     1      -8.623   2.235  -0.073  0.00  0.00    +0.000 C 
ENDBRANCH  46  49
ENDBRANCH  40  41
ENDBRANCH  11  40
TORSDOF 15
