REMARK  Name = 
REMARK  25 active torsions:
REMARK  status: ('A' for Active; 'I' for Inactive)
REMARK    1  A    between atoms: C_1  and  C_2
REMARK    2  A    between atoms: C_2  and  O_4
REMARK    3  A    between atoms: O_4  and  C_5
REMARK    4  A    between atoms: C_7  and  C_8
REMARK    5  A    between atoms: C_9  and  O_10
REMARK    6  A    between atoms: O_10  and  C_11
REMARK    7  A    between atoms: C_11  and  C_13
REMARK    8  A    between atoms: C_13  and  O_14
REMARK    9  A    between atoms: C_13  and  C_15
REMARK   10  A    between atoms: C_15  and  N_16
REMARK   11  A    between atoms: C_15  and  C_24
REMARK   12  A    between atoms: C_17  and  O_19
REMARK   13  A    between atoms: O_19  and  C_20
REMARK   14  A    between atoms: C_20  and  C_21
REMARK   15  A    between atoms: C_20  and  C_22
REMARK   16  A    between atoms: C_20  and  C_23
REMARK   17  A    between atoms: C_31  and  O_32
REMARK   18  A    between atoms: C_33  and  O_34
REMARK   19  A    between atoms: O_34  and  C_35
REMARK   20  A    between atoms: C_35  and  C_37
REMARK   21  A    between atoms: C_51  and  O_52
REMARK   22  A    between atoms: O_52  and  C_53
REMARK   23  A    between atoms: C_53  and  C_54
REMARK   24  A    between atoms: C_58  and  C_59
REMARK   25  A    between atoms: C_58  and  C_60
REMARK                            x       y       z     vdW  Elec       q    Type
REMARK                         _______ _______ _______ _____ _____    ______ ____
ROOT
ATOM      1  C   UNL     1      -4.431   2.954   0.000  0.00  0.00    +0.000 C 
ATOM      2  C   UNL     1      -2.931   2.925   0.000  0.00  0.00    +0.000 C 
ATOM      3  C   UNL     1      -1.471   3.310   0.000  0.00  0.00    +0.000 C 
ATOM      4  C   UNL     1      -1.246   4.793   0.000  0.00  0.00    +0.000 C 
ATOM      5  C   UNL     1      -0.299   2.374   0.000  0.00  0.00    +0.000 C 
ATOM      6  C   UNL     1      -0.524   0.891   0.000  0.00  0.00    +0.000 C 
ATOM      7  C   UNL     1      -1.920   0.344   0.000  0.00  0.00    +0.000 C 
ATOM      8  C   UNL     1      -3.002  -0.696   0.000  0.00  0.00    +0.000 C 
ATOM      9  C   UNL     1      -4.501  -0.667   0.000  0.00  0.00    +0.000 C 
ATOM     10  C   UNL     1      -5.541   0.415   0.000  0.00  0.00    +0.000 C 
ATOM     11  C   UNL     1      -6.581   1.496   0.000  0.00  0.00    +0.000 C 
ATOM     12  C   UNL     1      -6.997   0.055   0.000  0.00  0.00    +0.000 C 
ATOM     13  C   UNL     1      -7.414  -1.386   0.000  0.00  0.00    +0.000 C 
ATOM     14  C   UNL     1      -6.374  -2.467   0.000  0.00  0.00    +0.000 C 
ATOM     15  O   UNL     1      -6.014  -3.924   0.000  0.00  0.00    +0.000 OA
ATOM     16  C   UNL     1      -4.558  -3.564   0.000  0.00  0.00    +0.000 C 
ATOM     17  C   UNL     1      -4.918  -2.108   0.000  0.00  0.00    +0.000 C 
ATOM     18  C   UNL     1      -5.512   1.914   0.000  0.00  0.00    +0.000 C 
ATOM     19  O   UNL     1      -6.886   2.515   0.000  0.00  0.00    +0.000 OA
ATOM     20  C   UNL     1      -1.891   1.843   0.000  0.00  0.00    +0.000 C 
ATOM     21  C   UNL     1      -0.828   2.902   0.000  0.00  0.00    +0.000 C 
ATOM     22  C   UNL     1      -0.798   1.803   0.000  0.00  0.00    +0.000 C 
ENDROOT
BRANCH   7  23
ATOM     23  O   UNL     1      -0.546  -0.257   0.000  0.00  0.00    +0.000 OA
ATOM     24  H   UNL     1      -0.438  -1.221   0.000  0.00  0.00    +0.000 HD
ENDBRANCH   7  23
BRANCH   1  25
ATOM     25  O   UNL     1      -4.977   4.351   0.000  0.00  0.00    +0.000 OA
BRANCH  25  27
ATOM     26  C   UNL     1      -4.588   6.920   0.000  0.00  0.00    +0.000 C 
ATOM     27  C   UNL     1      -4.041   5.523   0.000  0.00  0.00    +0.000 C 
ATOM     28  O   UNL     1      -2.558   5.298   0.000  0.00  0.00    +0.000 OA
ENDBRANCH  25  27
ENDBRANCH   1  25
BRANCH   5  29
ATOM     29  O   UNL     1       1.098   2.921   0.000  0.00  0.00    +0.000 OA
BRANCH  29  30
ATOM     30  C   UNL     1       2.270   1.984   0.000  0.00  0.00    +0.000 C 
ATOM     31  O   UNL     1       2.045   0.501   0.000  0.00  0.00    +0.000 OA
BRANCH  30  32
ATOM     32  C   UNL     1       3.667   2.531   0.000  0.00  0.00    +0.000 C 
BRANCH  32  33
ATOM     33  O   UNL     1       3.892   4.014   0.000  0.00  0.00    +0.000 OA
ATOM     34  H   UNL     1       4.795   4.368   0.000  0.00  0.00    +0.000 HD
ENDBRANCH  32  33
BRANCH  32  35
ATOM     35  C   UNL     1       4.839   1.595   0.000  0.00  0.00    +0.000 C 
BRANCH  35  36
ATOM     36  C   UNL     1       6.235   2.142   0.000  0.00  0.00    +0.000 A 
ATOM     37  C   UNL     1       7.407   1.206   0.000  0.00  0.00    +0.000 A 
ATOM     38  C   UNL     1       8.804   1.752   0.000  0.00  0.00    +0.000 A 
ATOM     39  C   UNL     1       9.029   3.235   0.000  0.00  0.00    +0.000 A 
ATOM     40  C   UNL     1       7.857   4.172   0.000  0.00  0.00    +0.000 A 
ATOM     41  C   UNL     1       6.460   3.625   0.000  0.00  0.00    +0.000 A 
ENDBRANCH  35  36
BRANCH  35  42
ATOM     42  N   UNL     1       4.614   0.112   0.000  0.00  0.00    +0.000 N 
ATOM     43  C   UNL     1       5.786  -0.824   0.000  0.00  0.00    +0.000 C 
ATOM     44  O   UNL     1       7.183  -0.278   0.000  0.00  0.00    +0.000 OA
ATOM     45  H   UNL     1       3.697  -0.247   0.000  0.00  0.00    +0.000 HD
BRANCH  43  46
ATOM     46  O   UNL     1       5.561  -2.308   0.000  0.00  0.00    +0.000 OA
BRANCH  46  47
ATOM     47  C   UNL     1       6.733  -3.244   0.000  0.00  0.00    +0.000 C 
ATOM     48  C   UNL     1       5.797  -4.416   0.000  0.00  0.00    +0.000 C 
ATOM     49  C   UNL     1       7.669  -2.072   0.000  0.00  0.00    +0.000 C 
ATOM     50  C   UNL     1       7.905  -4.180   0.000  0.00  0.00    +0.000 C 
ENDBRANCH  46  47
ENDBRANCH  43  46
ENDBRANCH  35  42
ENDBRANCH  32  35
ENDBRANCH  30  32
ENDBRANCH  29  30
ENDBRANCH   5  29
BRANCH   8  51
ATOM     51  O   UNL     1      -2.455  -2.093   0.000  0.00  0.00    +0.000 OA
BRANCH  51  52
ATOM     52  C   UNL     1      -0.972  -2.317   0.000  0.00  0.00    +0.000 C 
ATOM     53  O   UNL     1      -0.035  -1.146   0.000  0.00  0.00    +0.000 OA
BRANCH  52  54
ATOM     54  C   UNL     1      -0.425  -3.714   0.000  0.00  0.00    +0.000 A 
ATOM     55  C   UNL     1      -1.361  -4.886   0.000  0.00  0.00    +0.000 A 
ATOM     56  C   UNL     1      -0.814  -6.283   0.000  0.00  0.00    +0.000 A 
ATOM     57  C   UNL     1       0.669  -6.508   0.000  0.00  0.00    +0.000 A 
ATOM     58  C   UNL     1       1.605  -5.336   0.000  0.00  0.00    +0.000 A 
ATOM     59  C   UNL     1       1.058  -3.939   0.000  0.00  0.00    +0.000 A 
ENDBRANCH  52  54
ENDBRANCH  51  52
ENDBRANCH   8  51
BRANCH  17  60
ATOM     60  O   UNL     1      -3.418  -2.137   0.000  0.00  0.00    +0.000 OA
BRANCH  60  61
ATOM     61  C   UNL     1      -2.694  -3.450   0.000  0.00  0.00    +0.000 C 
ATOM     62  C   UNL     1      -1.194  -3.480   0.000  0.00  0.00    +0.000 C 
ATOM     63  O   UNL     1      -3.469  -4.734   0.000  0.00  0.00    +0.000 OA
ENDBRANCH  60  61
ENDBRANCH  17  60
TORSDOF 17
