REMARK  Name = 
REMARK  28 active torsions:
REMARK  status: ('A' for Active; 'I' for Inactive)
REMARK    1  A    between atoms: C_1  and  C_2
REMARK    2  A    between atoms: C_2  and  C_3
REMARK    3  A    between atoms: C_3  and  C_4
REMARK    4  A    between atoms: C_4  and  O_6
REMARK    5  A    between atoms: O_6  and  C_7
REMARK    6  A    between atoms: C_8  and  C_9
REMARK    7  A    between atoms: C_11  and  O_12
REMARK    8  A    between atoms: O_12  and  C_13
REMARK    9  A    between atoms: C_14  and  C_15
REMARK   10  A    between atoms: C_17  and  O_18
REMARK   11  A    between atoms: O_18  and  C_19
REMARK   12  A    between atoms: C_20  and  C_21
REMARK   13  A    between atoms: C_21  and  C_22
REMARK   14  A    between atoms: C_25  and  C_26
REMARK   15  A    between atoms: C_27  and  O_28
REMARK   16  A    between atoms: C_34  and  C_35
REMARK   17  A    between atoms: C_40  and  O_41
REMARK   18  A    between atoms: C_42  and  O_43
REMARK   19  A    between atoms: O_43  and  C_44
REMARK   20  A    between atoms: C_45  and  O_46
REMARK   21  A    between atoms: C_47  and  N_48
REMARK   22  A    between atoms: N_48  and  C_49
REMARK   23  A    between atoms: N_48  and  C_50
REMARK   24  A    between atoms: C_52  and  C_53
REMARK   25  A    between atoms: C_52  and  O_54
REMARK   26  A    between atoms: O_54  and  C_55
REMARK   27  A    between atoms: C_55  and  C_57
REMARK   28  A    between atoms: C_57  and  C_58
REMARK                            x       y       z     vdW  Elec       q    Type
REMARK                         _______ _______ _______ _____ _____    ______ ____
ROOT
ATOM      1  C   UNL     1       1.725  -0.891  -0.094  0.00  0.00    +0.000 C 
ATOM      2  C   UNL     1       0.595  -0.811  -1.385  0.00  0.00    +0.000 C 
ATOM      3  C   UNL     1       0.537  -2.446  -1.463  0.00  0.00    +0.000 C 
ATOM      4  O   UNL     1      -0.624  -0.746  -0.489  0.00  0.00    +0.000 OA
ATOM      5  C   UNL     1      -0.479   0.769  -0.682  0.00  0.00    +0.000 C 
ATOM      6  C   UNL     1       0.188   0.838   0.910  0.00  0.00    +0.000 C 
ATOM      7  C   UNL     1       1.739   0.775   0.234  0.00  0.00    +0.000 C 
ENDROOT
BRANCH   7   8
ATOM      8  N   UNL     1       2.390   0.580   1.627  0.00  0.00    +0.000 NA
ATOM      9  C   UNL     1       1.995   1.680   2.464  0.00  0.00    +0.000 C 
ATOM     10  C   UNL     1       1.919  -0.608   2.244  0.00  0.00    +0.000 C 
ENDBRANCH   7   8
BRANCH   6  11
ATOM     11  O   UNL     1       0.165   2.331   0.872  0.00  0.00    +0.000 OA
ATOM     12  H   UNL     1       0.499   2.638   0.015  0.00  0.00    +0.000 HD
ENDBRANCH   6  11
BRANCH   1  13
ATOM     13  O   UNL     1       2.792  -0.741  -1.133  0.00  0.00    +0.000 OA
BRANCH  13  18
ATOM     14  C   UNL     1       6.119   0.638  -0.108  0.00  0.00    +0.000 C 
ATOM     15  C   UNL     1       5.681   0.641  -1.768  0.00  0.00    +0.000 C 
ATOM     16  C   UNL     1       5.975   2.250  -1.882  0.00  0.00    +0.000 C 
ATOM     17  O   UNL     1       4.228   0.864  -1.466  0.00  0.00    +0.000 OA
ATOM     18  C   UNL     1       3.945  -0.132  -0.336  0.00  0.00    +0.000 C 
ATOM     19  C   UNL     1       4.949  -1.320  -0.934  0.00  0.00    +0.000 C 
ATOM     20  C   UNL     1       6.201  -0.987  -0.121  0.00  0.00    +0.000 C 
ATOM     21  C   UNL     1       6.095  -1.471   1.258  0.00  0.00    +0.000 C 
BRANCH  14  22
ATOM     22  O   UNL     1       7.593   0.859  -0.450  0.00  0.00    +0.000 OA
BRANCH  22  23
ATOM     23  C   UNL     1       8.367   1.394   0.569  0.00  0.00    +0.000 C 
ATOM     24  O   UNL     1       8.101   1.028   1.754  0.00  0.00    +0.000 OA
BRANCH  23  25
ATOM     25  C   UNL     1       9.144   2.661   0.389  0.00  0.00    +0.000 C 
BRANCH  25  27
ATOM     26  C   UNL     1       7.287   3.379   1.639  0.00  0.00    +0.000 C 
ATOM     27  C   UNL     1       8.410   3.706   1.221  0.00  0.00    +0.000 C 
ENDBRANCH  25  27
ENDBRANCH  23  25
ENDBRANCH  22  23
ENDBRANCH  14  22
BRANCH  20  28
ATOM     28  O   UNL     1       7.200  -1.421  -0.947  0.00  0.00    +0.000 OA
BRANCH  28  29
ATOM     29  C   UNL     1       8.040  -2.481  -0.705  0.00  0.00    +0.000 C 
ATOM     30  O   UNL     1       8.592  -2.359   0.434  0.00  0.00    +0.000 OA
BRANCH  29  31
ATOM     31  C   UNL     1       7.983  -3.796  -1.420  0.00  0.00    +0.000 C 
ATOM     32  C   UNL     1       7.808  -4.849  -0.330  0.00  0.00    +0.000 C 
ENDBRANCH  29  31
ENDBRANCH  28  29
ENDBRANCH  20  28
ENDBRANCH  13  18
ENDBRANCH   1  13
BRANCH   5  33
ATOM     33  O   UNL     1      -1.842   1.206  -0.188  0.00  0.00    +0.000 OA
BRANCH  33  34
ATOM     34  C   UNL     1      -2.679  -0.028  -0.142  0.00  0.00    +0.000 C 
ATOM     35  C   UNL     1      -3.379   0.655   1.264  0.00  0.00    +0.000 C 
ATOM     36  C   UNL     1      -4.692  -0.267   1.183  0.00  0.00    +0.000 C 
ATOM     37  C   UNL     1      -4.149  -1.641   1.834  0.00  0.00    +0.000 C 
ATOM     38  C   UNL     1      -4.022  -1.016   3.322  0.00  0.00    +0.000 C 
ATOM     39  C   UNL     1      -5.749  -2.266   1.970  0.00  0.00    +0.000 C 
ATOM     40  C   UNL     1      -6.338  -1.022   2.774  0.00  0.00    +0.000 C 
ATOM     41  C   UNL     1      -7.208  -0.233   2.686  0.00  0.00    +0.000 C 
ATOM     42  C   UNL     1      -7.702   0.778   1.743  0.00  0.00    +0.000 C 
ATOM     43  C   UNL     1      -8.581   0.042   1.149  0.00  0.00    +0.000 C 
ATOM     44  C   UNL     1      -9.153   0.062  -0.167  0.00  0.00    +0.000 C 
ATOM     45  C   UNL     1      -8.324  -1.208  -0.816  0.00  0.00    +0.000 C 
ATOM     46  C   UNL     1      -9.674  -1.788  -1.556  0.00  0.00    +0.000 C 
ATOM     47  O   UNL     1      -7.920  -0.381  -2.052  0.00  0.00    +0.000 OA
ATOM     48  C   UNL     1      -6.548  -0.101  -2.161  0.00  0.00    +0.000 C 
ATOM     49  O   UNL     1      -6.346   1.146  -2.330  0.00  0.00    +0.000 OA
ATOM     50  C   UNL     1      -5.745  -1.092  -1.580  0.00  0.00    +0.000 C 
ATOM     51  C   UNL     1      -4.159  -1.031  -1.935  0.00  0.00    +0.000 C 
ATOM     52  C   UNL     1      -3.843   0.526  -1.269  0.00  0.00    +0.000 C 
BRANCH  39  53
ATOM     53  O   UNL     1      -5.386  -3.009   3.244  0.00  0.00    +0.000 OA
ATOM     54  H   UNL     1      -4.916  -2.409   3.845  0.00  0.00    +0.000 HD
ENDBRANCH  39  53
BRANCH  51  55
ATOM     55  O   UNL     1      -4.445  -0.503  -3.328  0.00  0.00    +0.000 OA
ATOM     56  H   UNL     1      -5.070   0.236  -3.271  0.00  0.00    +0.000 HD
ENDBRANCH  51  55
BRANCH  52  57
ATOM     57  O   UNL     1      -2.769   0.758  -2.286  0.00  0.00    +0.000 OA
ATOM     58  C   UNL     1      -3.033   1.882  -3.003  0.00  0.00    +0.000 C 
ENDBRANCH  52  57
BRANCH  35  59
ATOM     59  C   UNL     1      -4.075   1.945   0.570  0.00  0.00    +0.000 C 
BRANCH  59  60
ATOM     60  C   UNL     1      -3.687   3.135   1.361  0.00  0.00    +0.000 C 
ATOM     61  O   UNL     1      -3.210   4.119   0.797  0.00  0.00    +0.000 OA
ENDBRANCH  59  60
ENDBRANCH  35  59
ENDBRANCH  33  34
ENDBRANCH   5  33
TORSDOF 18
