REMARK  Name = 5282200
REMARK  18 active torsions:
REMARK  status: ('A' for Active; 'I' for Inactive)
REMARK    1  A    between atoms: O_1  and  C_14
REMARK    2  A    between atoms: O_2  and  C_16
REMARK    3  A    between atoms: O_3  and  C_18
REMARK    4  A    between atoms: O_4  and  C_19
REMARK    5  A    between atoms: O_5  and  C_21
REMARK    6  A    between atoms: O_7  and  C_24
REMARK    7  A    between atoms: O_8  and  C_28
REMARK    8  A    between atoms: O_10  and  C_29
REMARK    9  A    between atoms: O_11  and  C_31
REMARK   10  A    between atoms: O_12  and  C_35
REMARK   11  A    between atoms: C_13  and  C_18
REMARK   12  A    between atoms: C_18  and  C_22
REMARK   13  A    between atoms: C_22  and  C_26
REMARK   14  A    between atoms: C_26  and  C_30
REMARK   15  A    between atoms: C_30  and  C_32
REMARK   16  A    between atoms: C_32  and  C_36
REMARK   17  A    between atoms: C_33  and  C_37
REMARK   18  A    between atoms: C_34  and  C_38
REMARK                            x       y       z     vdW  Elec       q    Type
REMARK                         _______ _______ _______ _____ _____    ______ ____
ROOT
ATOM      1  O   UNL     1      -5.338  -1.645   0.664  0.00  0.00    +0.000 OA
ATOM      2  O   UNL     1      -4.945  -0.552  -1.329  0.00  0.00    +0.000 OA
ATOM      3  C   UNL     1      -4.677   0.619   0.791  0.00  0.00    +0.000 C 
ATOM      4  C   UNL     1      -3.193   0.676   1.209  0.00  0.00    +0.000 C 
ATOM      5  C   UNL     1      -2.184   0.666   0.045  0.00  0.00    +0.000 C 
ATOM      6  C   UNL     1      -0.749   1.004   0.497  0.00  0.00    +0.000 C 
ATOM      7  C   UNL     1       0.182   1.168  -0.713  0.00  0.00    +0.000 C 
ATOM      8  C   UNL     1       1.668   1.399  -0.384  0.00  0.00    +0.000 C 
ATOM      9  C   UNL     1       1.907   2.546   0.605  0.00  0.00    +0.000 C 
ATOM     10  C   UNL     1       3.360   3.034   0.736  0.00  0.00    +0.000 C 
ATOM     11  C   UNL     1       4.388   1.917   0.993  0.00  0.00    +0.000 C 
ATOM     12  C   UNL     1       5.782   2.469   1.345  0.00  0.00    +0.000 C 
ATOM     13  C   UNL     1       6.913   1.461   1.065  0.00  0.00    +0.000 C 
ATOM     14  C   UNL     1      -4.992  -0.572  -0.106  0.00  0.00    +0.000 C 
ATOM     15  C   UNL     1       7.291   1.390  -0.423  0.00  0.00    +0.000 C 
ATOM     16  C   UNL     1       8.339   0.316  -0.779  0.00  0.00    +0.000 C 
ATOM     17  C   UNL     1       7.876  -1.144  -0.606  0.00  0.00    +0.000 C 
ATOM     18  C   UNL     1      -5.750  -2.861  -0.003  0.00  0.00    +0.000 C 
ATOM     19  C   UNL     1       6.557  -1.464  -1.294  0.00  0.00    +0.000 C 
ATOM     20  C   UNL     1      -5.319  -4.050   0.879  0.00  0.00    +0.000 C 
ATOM     21  C   UNL     1      -7.268  -2.805  -0.176  0.00  0.00    +0.000 C 
ATOM     22  C   UNL     1       6.523  -1.272  -2.790  0.00  0.00    +0.000 C 
ATOM     23  C   UNL     1       5.516  -1.884  -0.549  0.00  0.00    +0.000 C 
ATOM     24  C   UNL     1      -3.835  -4.221   1.097  0.00  0.00    +0.000 C 
ATOM     25  C   UNL     1       4.163  -2.132  -0.998  0.00  0.00    +0.000 C 
ATOM     26  C   UNL     1      -2.859  -3.739   0.312  0.00  0.00    +0.000 C 
ATOM     27  C   UNL     1       3.222  -2.655  -0.198  0.00  0.00    +0.000 C 
ATOM     28  C   UNL     1      -1.453  -3.850   0.631  0.00  0.00    +0.000 C 
ATOM     29  C   UNL     1       1.843  -2.804  -0.604  0.00  0.00    +0.000 C 
ATOM     30  C   UNL     1      -0.496  -3.363  -0.173  0.00  0.00    +0.000 C 
ATOM     31  C   UNL     1       0.903  -3.339   0.189  0.00  0.00    +0.000 C 
ENDROOT
BRANCH   4  32
ATOM     32  O   UNL     1      -2.915  -0.437   2.062  0.00  0.00    +0.000 OA
ATOM     33  H   UNL     1      -3.513  -0.379   2.827  0.00  0.00    +0.000 HD
ENDBRANCH   4  32
BRANCH   6  34
ATOM     34  O   UNL     1      -0.232  -0.043   1.314  0.00  0.00    +0.000 OA
ATOM     35  H   UNL     1      -0.793  -0.104   2.105  0.00  0.00    +0.000 HD
ENDBRANCH   6  34
BRANCH   8  36
ATOM     36  O   UNL     1       2.289   1.689  -1.639  0.00  0.00    +0.000 OA
ATOM     37  H   UNL     1       2.197   0.901  -2.202  0.00  0.00    +0.000 HD
ENDBRANCH   8  36
BRANCH  10  38
ATOM     38  O   UNL     1       3.401   3.977   1.809  0.00  0.00    +0.000 OA
ATOM     39  H   UNL     1       4.235   4.472   1.743  0.00  0.00    +0.000 HD
ENDBRANCH  10  38
BRANCH  12  40
ATOM     40  O   UNL     1       5.818   2.751   2.748  0.00  0.00    +0.000 OA
ATOM     41  H   UNL     1       6.665   3.191   2.938  0.00  0.00    +0.000 HD
ENDBRANCH  12  40
BRANCH  15  42
ATOM     42  O   UNL     1       7.854   2.647  -0.821  0.00  0.00    +0.000 OA
ATOM     43  H   UNL     1       7.125   3.280  -0.926  0.00  0.00    +0.000 HD
ENDBRANCH  15  42
BRANCH  16  44
ATOM     44  O   UNL     1       9.513   0.513   0.020  0.00  0.00    +0.000 OA
ATOM     45  H   UNL     1       9.307   0.249   0.933  0.00  0.00    +0.000 HD
ENDBRANCH  16  44
BRANCH  17  46
ATOM     46  O   UNL     1       8.880  -2.012  -1.144  0.00  0.00    +0.000 OA
ATOM     47  H   UNL     1       8.593  -2.929  -0.987  0.00  0.00    +0.000 HD
ENDBRANCH  17  46
BRANCH  20  48
ATOM     48  O   UNL     1      -5.829  -5.273   0.354  0.00  0.00    +0.000 OA
ATOM     49  H   UNL     1      -6.780  -5.308   0.552  0.00  0.00    +0.000 HD
ENDBRANCH  20  48
BRANCH   3  50
ATOM     50  C   UNL     1      -5.142   1.909   0.115  0.00  0.00    +0.000 C 
BRANCH  50  51
ATOM     51  O   UNL     1      -4.794   3.008   0.949  0.00  0.00    +0.000 OA
ATOM     52  H   UNL     1      -3.869   3.243   0.759  0.00  0.00    +0.000 HD
ENDBRANCH  50  51
BRANCH  50  53
ATOM     53  C   UNL     1      -6.655   1.898  -0.104  0.00  0.00    +0.000 C 
BRANCH  53  54
ATOM     54  C   UNL     1      -7.143   3.178  -0.792  0.00  0.00    +0.000 C 
BRANCH  54  55
ATOM     55  C   UNL     1      -8.654   3.139  -1.031  0.00  0.00    +0.000 C 
BRANCH  55  56
ATOM     56  C   UNL     1      -9.135   4.396  -1.753  0.00  0.00    +0.000 C 
ATOM     57  C   UNL     1     -10.631   4.346  -2.021  0.00  0.00    +0.000 C 
ENDBRANCH  55  56
ENDBRANCH  54  55
ENDBRANCH  53  54
ENDBRANCH  50  53
ENDBRANCH   3  50
TORSDOF 15
