REMARK  Name = 
REMARK  22 active torsions:
REMARK  status: ('A' for Active; 'I' for Inactive)
REMARK    1  A    between atoms: C_1  and  O_2
REMARK    2  A    between atoms: O_2  and  C_3
REMARK    3  A    between atoms: C_5  and  C_6
REMARK    4  A    between atoms: C_6  and  C_7
REMARK    5  A    between atoms: C_10  and  C_11
REMARK    6  A    between atoms: C_12  and  C_13
REMARK    7  A    between atoms: C_13  and  C_14
REMARK    8  A    between atoms: C_13  and  C_15
REMARK    9  A    between atoms: C_15  and  O_17
REMARK   10  A    between atoms: C_22  and  C_23
REMARK   11  A    between atoms: C_22  and  C_24
REMARK   12  A    between atoms: C_27  and  C_28
REMARK   13  A    between atoms: C_27  and  C_29
REMARK   14  A    between atoms: C_31  and  C_32
REMARK   15  A    between atoms: C_34  and  O_35
REMARK   16  A    between atoms: C_34  and  C_36
REMARK   17  A    between atoms: C_36  and  O_37
REMARK   18  A    between atoms: C_38  and  C_39
REMARK   19  A    between atoms: C_41  and  C_42
REMARK   20  A    between atoms: C_44  and  C_45
REMARK   21  A    between atoms: C_48  and  C_49
REMARK   22  A    between atoms: C_50  and  C_51
REMARK                            x       y       z     vdW  Elec       q    Type
REMARK                         _______ _______ _______ _____ _____    ______ ____
ROOT
ATOM      1  C   UNL     1       2.880   1.482  -3.116  0.00  0.00    +0.000 C 
ATOM      2  C   UNL     1       4.298   0.764  -2.899  0.00  0.00    +0.000 C 
ATOM      3  C   UNL     1       4.360  -0.362  -1.734  0.00  0.00    +0.000 C 
ATOM      4  O   UNL     1       2.898  -0.704  -1.573  0.00  0.00    +0.000 OA
ATOM      5  C   UNL     1       2.127   0.147  -1.096  0.00  0.00    +0.000 C 
ATOM      6  O   UNL     1       0.849  -0.163  -1.438  0.00  0.00    +0.000 OA
ATOM      7  C   UNL     1       0.393  -0.897  -0.463  0.00  0.00    +0.000 C 
ATOM      8  C   UNL     1       0.837  -2.340  -0.508  0.00  0.00    +0.000 C 
ATOM      9  C   UNL     1       0.571  -0.123   0.736  0.00  0.00    +0.000 C 
ATOM     10  C   UNL     1       2.134   0.261   0.521  0.00  0.00    +0.000 C 
ATOM     11  C   UNL     1       2.576  -1.282   0.865  0.00  0.00    +0.000 C 
ATOM     12  C   UNL     1       2.400   1.686  -1.488  0.00  0.00    +0.000 C 
ATOM     13  C   UNL     1       0.901   2.086  -1.980  0.00  0.00    +0.000 C 
ENDROOT
BRANCH   7  14
ATOM     14  C   UNL     1      -1.177  -1.310  -0.654  0.00  0.00    +0.000 C 
ATOM     15  C   UNL     1      -1.321  -1.600   0.970  0.00  0.00    +0.000 C 
ATOM     16  C   UNL     1      -2.401  -0.649   1.355  0.00  0.00    +0.000 C 
ATOM     17  C   UNL     1      -2.940  -0.510  -0.084  0.00  0.00    +0.000 C 
ATOM     18  C   UNL     1      -3.279  -1.909  -0.374  0.00  0.00    +0.000 C 
ATOM     19  O   UNL     1      -1.843   0.061  -0.536  0.00  0.00    +0.000 OA
BRANCH  17  20
ATOM     20  C   UNL     1      -4.236   0.378   0.246  0.00  0.00    +0.000 C 
ATOM     21  O   UNL     1      -5.137  -0.410  -0.668  0.00  0.00    +0.000 OA
ATOM     22  C   UNL     1      -6.299   0.545  -0.665  0.00  0.00    +0.000 C 
ATOM     23  C   UNL     1      -5.512   1.895  -1.115  0.00  0.00    +0.000 C 
ATOM     24  C   UNL     1      -3.953   1.529  -0.976  0.00  0.00    +0.000 C 
ATOM     25  C   UNL     1      -3.902   0.515  -2.247  0.00  0.00    +0.000 C 
BRANCH  22  26
ATOM     26  C   UNL     1      -6.231   0.879   1.034  0.00  0.00    +0.000 C 
ATOM     27  O   UNL     1      -7.640   1.240   1.022  0.00  0.00    +0.000 OA
ATOM     28  C   UNL     1      -8.583   0.506   0.741  0.00  0.00    +0.000 C 
ATOM     29  C   UNL     1      -8.888  -0.239   2.166  0.00  0.00    +0.000 C 
ATOM     30  C   UNL     1      -8.183   0.837   3.194  0.00  0.00    +0.000 C 
ATOM     31  C   UNL     1      -7.621  -1.146   2.075  0.00  0.00    +0.000 C 
ATOM     32  C   UNL     1      -6.239  -0.764   1.490  0.00  0.00    +0.000 C 
ATOM     33  C   UNL     1      -5.690  -0.366   3.003  0.00  0.00    +0.000 C 
BRANCH  28  34
ATOM     34  O   UNL     1      -9.725   1.297   0.492  0.00  0.00    +0.000 OA
ATOM     35  H   UNL     1      -9.613   1.772  -0.346  0.00  0.00    +0.000 HD
ENDBRANCH  28  34
BRANCH  28  36
ATOM     36  C   UNL     1      -8.664  -0.536  -0.319  0.00  0.00    +0.000 C 
BRANCH  36  37
ATOM     37  O   UNL     1      -9.056  -1.791   0.080  0.00  0.00    +0.000 OA
ATOM     38  H   UNL     1      -8.398  -2.155   0.693  0.00  0.00    +0.000 HD
ENDBRANCH  36  37
ENDBRANCH  28  36
ENDBRANCH  22  26
ENDBRANCH  17  20
ENDBRANCH   7  14
BRANCH   1  40
ATOM     39  C   UNL     1       2.274  -0.046  -4.351  0.00  0.00    +0.000 C 
ATOM     40  O   UNL     1       2.102   0.218  -3.411  0.00  0.00    +0.000 OA
ENDBRANCH   1  40
BRANCH   3  41
ATOM     41  C   UNL     1       4.509   0.786  -0.550  0.00  0.00    +0.000 C 
BRANCH  41  42
ATOM     42  C   UNL     1       5.751   0.219   0.367  0.00  0.00    +0.000 C 
ATOM     43  C   UNL     1       6.473  -0.538  -0.905  0.00  0.00    +0.000 C 
ATOM     44  C   UNL     1       7.880  -0.763  -0.591  0.00  0.00    +0.000 C 
ATOM     45  C   UNL     1       8.276   0.797  -0.764  0.00  0.00    +0.000 C 
ATOM     46  C   UNL     1       9.841   0.598  -0.410  0.00  0.00    +0.000 C 
ATOM     47  C   UNL     1       7.825   1.361   0.775  0.00  0.00    +0.000 C 
ATOM     48  O   UNL     1       6.440   1.555   0.243  0.00  0.00    +0.000 OA
BRANCH  47  49
ATOM     49  C   UNL     1       7.542  -0.119   1.562  0.00  0.00    +0.000 C 
ATOM     50  C   UNL     1       9.086  -0.563   1.782  0.00  0.00    +0.000 C 
BRANCH  49  51
ATOM     51  C   UNL     1       7.492   0.597   2.984  0.00  0.00    +0.000 C 
ATOM     52  O   UNL     1       8.416   1.416   3.269  0.00  0.00    +0.000 OA
BRANCH  51  53
ATOM     53  O   UNL     1       7.390  -0.423   3.942  0.00  0.00    +0.000 OA
ATOM     54  H   UNL     1       6.742  -1.093   3.845  0.00  0.00    +0.000 HD
ENDBRANCH  51  53
ENDBRANCH  49  51
ENDBRANCH  47  49
ENDBRANCH  41  42
ENDBRANCH   3  41
TORSDOF 12
