REMARK  Name = 
REMARK  29 active torsions:
REMARK  status: ('A' for Active; 'I' for Inactive)
REMARK    1  A    between atoms: C_1  and  C_2
REMARK    2  A    between atoms: C_3  and  C_4
REMARK    3  A    between atoms: C_6  and  O_7
REMARK    4  A    between atoms: C_6  and  C_8
REMARK    5  A    between atoms: C_8  and  C_9
REMARK    6  A    between atoms: C_8  and  C_10
REMARK    7  A    between atoms: C_10  and  O_11
REMARK    8  A    between atoms: C_10  and  C_12
REMARK    9  A    between atoms: C_12  and  C_13
REMARK   10  A    between atoms: C_12  and  C_14
REMARK   11  A    between atoms: C_18  and  O_19
REMARK   12  A    between atoms: O_19  and  C_20
REMARK   13  A    between atoms: C_22  and  C_23
REMARK   14  A    between atoms: C_25  and  C_26
REMARK   15  A    between atoms: C_27  and  O_28
REMARK   16  A    between atoms: C_29  and  C_30
REMARK   17  A    between atoms: C_30  and  C_31
REMARK   18  A    between atoms: C_32  and  O_33
REMARK   19  A    between atoms: C_34  and  C_35
REMARK   20  A    between atoms: C_37  and  C_38
REMARK   21  A    between atoms: C_42  and  O_43
REMARK   22  A    between atoms: O_43  and  C_44
REMARK   23  A    between atoms: C_46  and  O_47
REMARK   24  A    between atoms: O_47  and  C_48
REMARK   25  A    between atoms: C_50  and  O_51
REMARK   26  A    between atoms: C_52  and  O_53
REMARK   27  A    between atoms: O_53  and  C_54
REMARK   28  A    between atoms: C_57  and  C_58
REMARK   29  A    between atoms: C_60  and  C_61
REMARK                            x       y       z     vdW  Elec       q    Type
REMARK                         _______ _______ _______ _____ _____    ______ ____
ROOT
ATOM      1  C   UNL     1      -0.101  -0.468  -0.018  0.00  0.00    +0.000 C 
ATOM      2  C   UNL     1       0.808  -0.485   1.321  0.00  0.00    +0.000 C 
ENDROOT
BRANCH   1   3
ATOM      3  C   UNL     1      -1.390  -1.157   0.848  0.00  0.00    +0.000 C 
ATOM      4  O   UNL     1      -2.216   0.051   1.244  0.00  0.00    +0.000 OA
ATOM      5  C   UNL     1      -1.333   1.027   1.734  0.00  0.00    +0.000 C 
ATOM      6  O   UNL     1      -1.400   1.534   2.868  0.00  0.00    +0.000 OA
ATOM      7  C   UNL     1      -1.256   1.828   0.492  0.00  0.00    +0.000 C 
ATOM      8  C   UNL     1      -1.879   1.313  -0.500  0.00  0.00    +0.000 C 
ATOM      9  C   UNL     1      -2.989   1.958  -1.234  0.00  0.00    +0.000 C 
ATOM     10  C   UNL     1      -3.015   1.715  -2.720  0.00  0.00    +0.000 C 
ATOM     11  C   UNL     1      -3.751   2.873  -0.617  0.00  0.00    +0.000 C 
ATOM     12  C   UNL     1      -5.043   2.127  -0.016  0.00  0.00    +0.000 C 
ATOM     13  C   UNL     1      -4.668   2.446   1.556  0.00  0.00    +0.000 C 
ATOM     14  C   UNL     1      -6.094   3.502   0.079  0.00  0.00    +0.000 C 
ATOM     15  C   UNL     1      -7.384   2.427   0.444  0.00  0.00    +0.000 C 
ATOM     16  C   UNL     1      -7.592   1.449  -0.948  0.00  0.00    +0.000 C 
ATOM     17  C   UNL     1      -6.520   0.193  -0.396  0.00  0.00    +0.000 C 
ATOM     18  C   UNL     1      -6.559  -0.459  -1.901  0.00  0.00    +0.000 C 
ATOM     19  C   UNL     1      -7.648  -0.839   0.149  0.00  0.00    +0.000 C 
ATOM     20  C   UNL     1      -6.626  -1.880   0.609  0.00  0.00    +0.000 C 
ATOM     21  C   UNL     1      -7.502  -2.843   1.402  0.00  0.00    +0.000 C 
ATOM     22  C   UNL     1      -5.952  -2.533  -0.342  0.00  0.00    +0.000 C 
ATOM     23  C   UNL     1      -4.522  -2.480  -0.388  0.00  0.00    +0.000 C 
ATOM     24  C   UNL     1      -3.721  -1.732   0.310  0.00  0.00    +0.000 C 
ATOM     25  C   UNL     1      -2.333  -1.621  -0.563  0.00  0.00    +0.000 C 
BRANCH   7  26
ATOM     26  O   UNL     1      -0.193   2.747   0.580  0.00  0.00    +0.000 OA
ATOM     27  C   UNL     1      -0.513   3.917   1.334  0.00  0.00    +0.000 C 
ENDBRANCH   7  26
BRANCH  14  28
ATOM     28  O   UNL     1      -6.400   3.719  -1.387  0.00  0.00    +0.000 OA
ATOM     29  H   UNL     1      -6.603   2.867  -1.805  0.00  0.00    +0.000 HD
ENDBRANCH  14  28
BRANCH  15  30
ATOM     30  C   UNL     1      -8.494   3.481  -0.105  0.00  0.00    +0.000 C 
ATOM     31  C   UNL     1      -8.251   4.743   0.696  0.00  0.00    +0.000 C 
ENDBRANCH  15  30
BRANCH  16  32
ATOM     32  O   UNL     1      -6.457   1.922  -1.830  0.00  0.00    +0.000 OA
ATOM     33  H   UNL     1      -5.637   1.953  -1.314  0.00  0.00    +0.000 HD
ENDBRANCH  16  32
BRANCH  25  34
ATOM     34  O   UNL     1      -2.002  -3.092  -0.292  0.00  0.00    +0.000 OA
ATOM     35  C   UNL     1      -2.481  -3.825  -1.345  0.00  0.00    +0.000 C 
ENDBRANCH  25  34
ENDBRANCH   1   3
BRANCH   1  36
ATOM     36  C   UNL     1       0.536  -1.994  -0.447  0.00  0.00    +0.000 C 
BRANCH  36  37
ATOM     37  C   UNL     1       2.173  -1.391  -0.425  0.00  0.00    +0.000 C 
ATOM     38  C   UNL     1       2.154  -0.649  -1.885  0.00  0.00    +0.000 C 
BRANCH  37  41
ATOM     39  C   UNL     1       3.742  -4.278   0.389  0.00  0.00    +0.000 C 
ATOM     40  O   UNL     1       2.384  -3.812  -0.180  0.00  0.00    +0.000 OA
ATOM     41  C   UNL     1       2.826  -2.778  -0.966  0.00  0.00    +0.000 C 
ATOM     42  C   UNL     1       4.224  -2.640  -1.252  0.00  0.00    +0.000 C 
ATOM     43  C   UNL     1       5.120  -2.256   0.096  0.00  0.00    +0.000 C 
ATOM     44  C   UNL     1       3.899  -2.765   1.196  0.00  0.00    +0.000 C 
ATOM     45  C   UNL     1       4.949  -3.353   2.245  0.00  0.00    +0.000 C 
BRANCH  39  48
ATOM     46  C   UNL     1       2.699  -7.028   2.685  0.00  0.00    +0.000 C 
ATOM     47  C   UNL     1       3.172  -6.261   1.784  0.00  0.00    +0.000 C 
ATOM     48  C   UNL     1       3.022  -4.949   1.713  0.00  0.00    +0.000 C 
ENDBRANCH  39  48
BRANCH  41  49
ATOM     49  O   UNL     1       2.265  -3.038  -2.215  0.00  0.00    +0.000 OA
ATOM     50  H   UNL     1       1.305  -3.148  -2.122  0.00  0.00    +0.000 HD
ENDBRANCH  41  49
BRANCH  43  51
ATOM     51  O   UNL     1       4.604  -0.801   0.109  0.00  0.00    +0.000 OA
BRANCH  51  52
ATOM     52  C   UNL     1       6.012  -0.201  -0.245  0.00  0.00    +0.000 C 
ATOM     53  C   UNL     1       5.304   1.287  -0.685  0.00  0.00    +0.000 C 
ATOM     54  C   UNL     1       6.777   1.967  -1.076  0.00  0.00    +0.000 C 
ATOM     55  C   UNL     1       7.047   2.415   0.578  0.00  0.00    +0.000 C 
ATOM     56  C   UNL     1       7.639   0.814   0.900  0.00  0.00    +0.000 C 
ATOM     57  C   UNL     1       7.918   1.207   2.494  0.00  0.00    +0.000 C 
ATOM     58  O   UNL     1       6.227   0.307   1.227  0.00  0.00    +0.000 OA
BRANCH  54  59
ATOM     59  O   UNL     1       6.124   3.325  -1.363  0.00  0.00    +0.000 OA
ATOM     60  H   UNL     1       5.499   3.540  -0.653  0.00  0.00    +0.000 HD
ENDBRANCH  54  59
BRANCH  55  61
ATOM     61  O   UNL     1       8.445   2.932   0.269  0.00  0.00    +0.000 OA
BRANCH  61  62
ATOM     62  C   UNL     1       8.513   4.261  -0.131  0.00  0.00    +0.000 C 
ATOM     63  N   UNL     1       9.725   4.814  -0.655  0.00  0.00    +0.000 N 
ATOM     64  O   UNL     1       7.682   5.065   0.347  0.00  0.00    +0.000 OA
ATOM     65  H   UNL     1      10.410   4.222  -1.041  0.00  0.00    +0.000 HD
ATOM     66  H   UNL     1       9.873   5.787  -0.628  0.00  0.00    +0.000 HD
ENDBRANCH  61  62
ENDBRANCH  55  61
ENDBRANCH  51  52
ENDBRANCH  43  51
ENDBRANCH  37  41
ENDBRANCH  36  37
BRANCH  36  67
ATOM     67  O   UNL     1       0.293  -1.761  -1.927  0.00  0.00    +0.000 OA
ATOM     68  H   UNL     1       0.600  -0.873  -2.169  0.00  0.00    +0.000 HD
ENDBRANCH  36  67
ENDBRANCH   1  36
TORSDOF 17
