REMARK  Name = 64718
REMARK  19 active torsions:
REMARK  status: ('A' for Active; 'I' for Inactive)
REMARK    1  A    between atoms: O_1  and  C_9
REMARK    2  A    between atoms: O_1  and  C_22
REMARK    3  A    between atoms: O_2  and  C_21
REMARK    4  A    between atoms: O_4  and  C_25
REMARK    5  A    between atoms: O_5  and  C_31
REMARK    6  A    between atoms: C_8  and  C_12
REMARK    7  A    between atoms: C_10  and  C_19
REMARK    8  A    between atoms: C_12  and  C_18
REMARK    9  A    between atoms: C_14  and  C_20
REMARK   10  A    between atoms: C_18  and  C_21
REMARK   11  A    between atoms: C_21  and  C_23
REMARK   12  A    between atoms: C_22  and  C_24
REMARK   13  A    between atoms: C_23  and  C_25
REMARK   14  A    between atoms: C_24  and  C_26
REMARK   15  A    between atoms: C_24  and  C_27
REMARK   16  A    between atoms: C_24  and  C_28
REMARK   17  A    between atoms: C_25  and  C_29
REMARK   18  A    between atoms: C_26  and  C_30
REMARK   19  A    between atoms: C_29  and  C_31
REMARK                            x       y       z     vdW  Elec       q    Type
REMARK                         _______ _______ _______ _____ _____    ______ ____
ROOT
ATOM      1  C   UNL     1       0.960   1.603   0.400  0.00  0.00    +0.000 C 
ATOM      2  C   UNL     1       0.021   0.962  -0.665  0.00  0.00    +0.000 C 
ATOM      3  C   UNL     1       1.856   0.573   1.126  0.00  0.00    +0.000 C 
ATOM      4  C   UNL     1      -0.871   2.038  -1.351  0.00  0.00    +0.000 C 
ATOM      5  C   UNL     1       1.781   2.733  -0.214  0.00  0.00    +0.000 C 
ATOM      6  C   UNL     1       2.892   1.267   2.015  0.00  0.00    +0.000 C 
ATOM      7  C   UNL     1       3.783   2.262   1.253  0.00  0.00    +0.000 C 
ATOM      8  C   UNL     1       3.038   3.010   0.180  0.00  0.00    +0.000 C 
ATOM      9  C   UNL     1      -0.053   3.234  -1.766  0.00  0.00    +0.000 C 
ATOM     10  C   UNL     1       1.150   3.525  -1.255  0.00  0.00    +0.000 C 
ATOM     11  C   UNL     1      -2.057   2.514  -0.505  0.00  0.00    +0.000 C 
ATOM     12  C   UNL     1       5.021   1.589   0.655  0.00  0.00    +0.000 C 
ENDROOT
BRANCH   3  13
ATOM     13  O   UNL     1       2.503  -0.276   0.183  0.00  0.00    +0.000 OA
BRANCH  13  15
ATOM     14  O   UNL     1       3.501  -1.431   1.904  0.00  0.00    +0.000 OA
ATOM     15  C   UNL     1       3.309  -1.251   0.707  0.00  0.00    +0.000 C 
BRANCH  15  16
ATOM     16  C   UNL     1       3.950  -2.088  -0.408  0.00  0.00    +0.000 C 
ATOM     17  C   UNL     1       3.456  -1.546  -1.762  0.00  0.00    +0.000 C 
ATOM     18  C   UNL     1       5.479  -1.928  -0.357  0.00  0.00    +0.000 C 
BRANCH  16  19
ATOM     19  C   UNL     1       3.549  -3.579  -0.279  0.00  0.00    +0.000 C 
ATOM     20  C   UNL     1       2.055  -3.857  -0.407  0.00  0.00    +0.000 C 
ENDBRANCH  16  19
ENDBRANCH  15  16
ENDBRANCH  13  15
ENDBRANCH   3  13
BRANCH   2  21
ATOM     21  C   UNL     1      -0.816  -0.193  -0.104  0.00  0.00    +0.000 C 
BRANCH  21  22
ATOM     22  C   UNL     1      -1.573  -0.910  -1.221  0.00  0.00    +0.000 C 
BRANCH  22  23
ATOM     23  C   UNL     1      -2.363  -2.136  -0.744  0.00  0.00    +0.000 C 
BRANCH  23  24
ATOM     24  O   UNL     1      -1.432  -3.113  -0.274  0.00  0.00    +0.000 OA
ATOM     25  H   UNL     1      -0.838  -3.332  -1.012  0.00  0.00    +0.000 HD
ENDBRANCH  23  24
BRANCH  23  26
ATOM     26  C   UNL     1      -3.391  -1.867   0.367  0.00  0.00    +0.000 C 
BRANCH  26  27
ATOM     27  C   UNL     1      -4.471  -0.836   0.020  0.00  0.00    +0.000 C 
BRANCH  27  28
ATOM     28  O   UNL     1      -5.233  -1.297  -1.093  0.00  0.00    +0.000 OA
ATOM     29  H   UNL     1      -4.663  -1.259  -1.879  0.00  0.00    +0.000 HD
ENDBRANCH  27  28
BRANCH  27  30
ATOM     30  C   UNL     1      -5.424  -0.639   1.199  0.00  0.00    +0.000 C 
BRANCH  30  32
ATOM     31  O   UNL     1      -6.398   1.260   0.065  0.00  0.00    +0.000 OA
ATOM     32  C   UNL     1      -6.529   0.329   0.849  0.00  0.00    +0.000 C 
BRANCH  32  33
ATOM     33  O   UNL     1      -7.693   0.046   1.484  0.00  0.00    +0.000 OA
ATOM     34  H   UNL     1      -8.405   0.676   1.242  0.00  0.00    +0.000 HD
ENDBRANCH  32  33
ENDBRANCH  30  32
ENDBRANCH  27  30
ENDBRANCH  26  27
ENDBRANCH  23  26
ENDBRANCH  22  23
ENDBRANCH  21  22
ENDBRANCH   2  21
TORSDOF 14
