REMARK  Name = 68932
REMARK  10 active torsions:
REMARK  status: ('A' for Active; 'I' for Inactive)
REMARK    1  A    between atoms: O_1  and  C_5
REMARK    2  A    between atoms: O_1  and  C_14
REMARK    3  A    between atoms: O_3  and  C_15
REMARK    4  A    between atoms: O_3  and  C_16
REMARK    5  A    between atoms: C_4  and  C_10
REMARK    6  A    between atoms: C_7  and  C_11
REMARK    7  A    between atoms: C_10  and  C_12
REMARK    8  A    between atoms: C_10  and  C_13
REMARK    9  A    between atoms: C_14  and  C_15
REMARK   10  A    between atoms: C_16  and  C_17
REMARK                            x       y       z     vdW  Elec       q    Type
REMARK                         _______ _______ _______ _____ _____    ______ ____
ROOT
ATOM      1  C   UNL     1      -2.014  -0.614   0.478  0.00  0.00    +0.000 C 
ATOM      2  C   UNL     1      -0.792  -0.025  -0.247  0.00  0.00    +0.000 C 
ATOM      3  C   UNL     1      -3.278   0.196   0.164  0.00  0.00    +0.000 C 
ATOM      4  C   UNL     1      -1.883   2.266  -0.257  0.00  0.00    +0.000 C 
ATOM      5  C   UNL     1      -0.618   1.464   0.062  0.00  0.00    +0.000 C 
ATOM      6  C   UNL     1      -3.095   1.679   0.476  0.00  0.00    +0.000 C 
ATOM      7  C   UNL     1      -1.694   3.738   0.104  0.00  0.00    +0.000 C 
ENDROOT
BRANCH   1   8
ATOM      8  C   UNL     1      -2.222  -2.087   0.114  0.00  0.00    +0.000 C 
ATOM      9  C   UNL     1      -3.362  -2.683   0.935  0.00  0.00    +0.000 C 
ATOM     10  C   UNL     1      -2.499  -2.233  -1.380  0.00  0.00    +0.000 C 
ENDBRANCH   1   8
BRANCH   2  11
ATOM     11  O   UNL     1       0.382  -0.721   0.165  0.00  0.00    +0.000 OA
BRANCH  11  13
ATOM     12  O   UNL     1       1.664   0.171  -1.535  0.00  0.00    +0.000 OA
ATOM     13  C   UNL     1       1.550  -0.307  -0.415  0.00  0.00    +0.000 C 
BRANCH  13  14
ATOM     14  C   UNL     1       2.687  -0.535   0.546  0.00  0.00    +0.000 C 
BRANCH  14  15
ATOM     15  O   UNL     1       3.893  -0.129  -0.069  0.00  0.00    +0.000 OA
BRANCH  15  16
ATOM     16  C   UNL     1       5.014  -0.317   0.789  0.00  0.00    +0.000 C 
ATOM     17  C   UNL     1       6.267   0.136   0.070  0.00  0.00    +0.000 C 
ENDBRANCH  15  16
ENDBRANCH  14  15
ENDBRANCH  13  14
ENDBRANCH  11  13
ENDBRANCH   2  11
TORSDOF 6
