REMARK  Name = 9085
REMARK  8 active torsions:
REMARK  status: ('A' for Active; 'I' for Inactive)
REMARK    1  A    between atoms: O_1  and  C_12
REMARK    2  A    between atoms: N_3  and  C_10
REMARK    3  A    between atoms: N_4  and  C_11
REMARK    4  A    between atoms: C_7  and  C_8
REMARK    5  A    between atoms: C_7  and  C_9
REMARK    6  A    between atoms: C_8  and  C_10
REMARK    7  A    between atoms: C_9  and  C_11
REMARK    8  A    between atoms: C_10  and  C_12
REMARK                            x       y       z     vdW  Elec       q    Type
REMARK                         _______ _______ _______ _____ _____    ______ ____
ROOT
ATOM      1  C   UNK     1       0.397   0.516  -0.265  0.00  0.00    +0.000 C 
ENDROOT
BRANCH   1   2
ATOM      2  C   UNK     1       1.702   0.859  -0.999  0.00  0.00    +0.000 C 
BRANCH   2   3
ATOM      3  C   UNK     1       2.832  -0.162  -0.799  0.00  0.00    +0.000 C 
BRANCH   3   4
ATOM      4  N   UNK     1       2.441  -1.492  -1.264  0.00  0.00    +0.000 NA
ATOM      5  H   UNK     1       3.244  -2.118  -1.227  0.00  0.00    +0.000 HD
ATOM      6  H   UNK     1       2.163  -1.444  -2.243  0.00  0.00    +0.000 HD
ENDBRANCH   3   4
BRANCH   3   8
ATOM      7  O   UNK     1       3.209  -1.278   1.345  0.00  0.00    +0.000 OA
ATOM      8  C   UNK     1       3.255  -0.272   0.652  0.00  0.00    +0.000 C 
BRANCH   8   9
ATOM      9  O   UNK     1       3.723   0.921   1.102  0.00  0.00    +0.000 OA
ATOM     10  H   UNK     1       4.008   0.872   2.039  0.00  0.00    +0.000 HD
ENDBRANCH   8   9
ENDBRANCH   3   8
ENDBRANCH   2   3
ENDBRANCH   1   2
BRANCH   1  11
ATOM     11  C   UNK     1      -0.691   1.554  -0.566  0.00  0.00    +0.000 C 
BRANCH  11  12
ATOM     12  C   UNK     1      -2.007   1.238   0.136  0.00  0.00    +0.000 C 
BRANCH  12  13
ATOM     13  N   UNK     1      -2.521  -0.052  -0.326  0.00  0.00    +0.000 NA
ATOM     14  N   UNK     1      -4.214  -1.632  -0.229  0.00  0.00    +0.000 N 
ATOM     15  N   UNK     1      -4.464   0.233   1.057  0.00  0.00    +0.000 N 
ATOM     16  C   UNK     1      -3.663  -0.432   0.155  0.00  0.00    +0.000 C 
ATOM     17  H   UNK     1      -3.740  -2.238  -0.890  0.00  0.00    +0.000 HD
ATOM     18  H   UNK     1      -5.106  -1.947   0.136  0.00  0.00    +0.000 HD
ATOM     19  H   UNK     1      -5.345  -0.163   1.365  0.00  0.00    +0.000 HD
ATOM     20  H   UNK     1      -4.208   1.133   1.447  0.00  0.00    +0.000 HD
ENDBRANCH  12  13
ENDBRANCH  11  12
ENDBRANCH   1  11
TORSDOF 8
