REMARK  Name = 440121
REMARK  11 active torsions:
REMARK  status: ('A' for Active; 'I' for Inactive)
REMARK    1  A    between atoms: O_1  and  C_13
REMARK    2  A    between atoms: N_3  and  C_5
REMARK    3  A    between atoms: N_3  and  C_8
REMARK    4  A    between atoms: N_3  and  C_9
REMARK    5  A    between atoms: N_3  and  C_10
REMARK    6  A    between atoms: N_4  and  C_12
REMARK    7  A    between atoms: C_5  and  C_6
REMARK    8  A    between atoms: C_6  and  C_7
REMARK    9  A    between atoms: C_7  and  C_11
REMARK   10  A    between atoms: C_11  and  C_12
REMARK   11  A    between atoms: C_12  and  C_13
REMARK                            x       y       z     vdW  Elec       q    Type
REMARK                         _______ _______ _______ _____ _____    ______ ____
ROOT
ATOM      1  C   UNK     1       1.411   0.647   0.942  0.00  0.00    +0.000 C 
ENDROOT
BRANCH   1   2
ATOM      2  C   UNK     1       0.402   0.297  -0.161  0.00  0.00    +0.000 C 
BRANCH   2   3
ATOM      3  C   UNK     1      -1.021   0.219   0.398  0.00  0.00    +0.000 C 
BRANCH   3   4
ATOM      4  C   UNK     1      -2.024  -0.094  -0.703  0.00  0.00    +0.000 C 
BRANCH   4   5
ATOM      5  N   UNK     1      -3.389  -0.115  -0.124  0.00  0.00    +0.000 N 
ATOM      6  C   UNK     1      -3.493  -1.162   0.994  0.00  0.00    +0.000 C 
ATOM      7  C   UNK     1      -3.752   1.253   0.469  0.00  0.00    +0.000 C 
ATOM      8  C   UNK     1      -4.432  -0.460  -1.197  0.00  0.00    +0.000 C 
ENDBRANCH   4   5
ENDBRANCH   3   4
ENDBRANCH   2   3
ENDBRANCH   1   2
BRANCH   1   9
ATOM      9  C   UNK     1       2.877   0.693   0.489  0.00  0.00    +0.000 C 
BRANCH   9  10
ATOM     10  N   UNK     1       3.116   1.764  -0.479  0.00  0.00    +0.000 NA
ATOM     11  H   UNK     1       4.115   1.842  -0.664  0.00  0.00    +0.000 HD
ATOM     12  H   UNK     1       2.831   2.657  -0.077  0.00  0.00    +0.000 HD
ENDBRANCH   9  10
BRANCH   9  14
ATOM     13  O   UNK     1       3.744  -0.768  -1.264  0.00  0.00    +0.000 OA
ATOM     14  C   UNK     1       3.331  -0.622  -0.121  0.00  0.00    +0.000 C 
BRANCH  14  15
ATOM     15  O   UNK     1       3.228  -1.653   0.758  0.00  0.00    +0.000 OA
ATOM     16  H   UNK     1       3.519  -2.501   0.362  0.00  0.00    +0.000 HD
ENDBRANCH  14  15
ENDBRANCH   9  14
ENDBRANCH   1   9
TORSDOF 8
