REMARK  Name = 12192007
REMARK  4 active torsions:
REMARK  status: ('A' for Active; 'I' for Inactive)
REMARK    1  A    between atoms: O_1  and  C_12
REMARK    2  A    between atoms: N_3  and  CA_9
REMARK    3  A    between atoms: C_4  and  CA_9
REMARK    4  A    between atoms: CA_9  and  C_12
REMARK                            x       y       z     vdW  Elec       q    Type
REMARK                         _______ _______ _______ _____ _____    ______ ____
ROOT
ATOM      1  C   UNL     1      -0.789   0.391  -0.230  0.00  0.00    +0.000 C 
ATOM      2  C   UNL     1       0.225   1.470   0.208  0.00  0.00    +0.000 C 
ATOM      3  C   UNL     1      -0.148  -0.972   0.108  0.00  0.00    +0.000 C 
ATOM      4  C   UNL     1       1.520   0.735   0.059  0.00  0.00    +0.000 A 
ATOM      5  C   UNL     1       1.309  -0.647   0.003  0.00  0.00    +0.000 A 
ATOM      6  C   UNL     1       2.799   1.265   0.021  0.00  0.00    +0.000 A 
ATOM      7  C   UNL     1       2.373  -1.528  -0.093  0.00  0.00    +0.000 A 
ATOM      8  C   UNL     1       3.877   0.384  -0.087  0.00  0.00    +0.000 A 
ATOM      9  C   UNL     1       3.666  -1.003  -0.144  0.00  0.00    +0.000 A 
ENDROOT
BRANCH   1  10
ATOM     10  CA  UNL     1      -2.153   0.573   0.418  0.00  0.00    +0.000 C 
BRANCH  10  11
ATOM     11  N   UNL     1      -2.700   1.869   0.036  0.00  0.00    +0.000 NA
ATOM     12  H1  UNL     1      -2.105   2.619   0.387  0.00  0.00    +0.000 HD
ATOM     13  H2  UNL     1      -3.606   2.004   0.483  0.00  0.00    +0.000 HD
ENDBRANCH  10  11
BRANCH  10  15
ATOM     14  OXT UNL     1      -3.825  -0.455  -1.034  0.00  0.00    +0.000 OA
ATOM     15  C   UNL     1      -3.105  -0.503  -0.047  0.00  0.00    +0.000 C 
BRANCH  15  16
ATOM     16  O   UNL     1      -3.048  -1.580   0.781  0.00  0.00    +0.000 OA
ATOM     17  H   UNL     1      -3.651  -2.296   0.490  0.00  0.00    +0.000 HD
ENDBRANCH  15  16
ENDBRANCH  10  15
ENDBRANCH   1  10
TORSDOF 4
