REMARK  Name = 
REMARK  19 active torsions:
REMARK  status: ('A' for Active; 'I' for Inactive)
REMARK    1  A    between atoms: C_1  and  C_2
REMARK    2  A    between atoms: C_2  and  C_3
REMARK    3  A    between atoms: C_3  and  C_4
REMARK    4  A    between atoms: C_4  and  C_5
REMARK    5  A    between atoms: C_5  and  C_6
REMARK    6  A    between atoms: C_6  and  S_7
REMARK    7  A    between atoms: S_7  and  C_8
REMARK    8  A    between atoms: C_8  and  C_9
REMARK    9  A    between atoms: C_9  and  N_10
REMARK   10  A    between atoms: C_9  and  C_20
REMARK   11  A    between atoms: C_11  and  C_13
REMARK   12  A    between atoms: C_13  and  C_14
REMARK   13  A    between atoms: C_14  and  C_15
REMARK   14  A    between atoms: C_15  and  N_16
REMARK   15  A    between atoms: C_15  and  C_17
REMARK   16  A    between atoms: C_17  and  O_19
REMARK   17  A    between atoms: N_22  and  CA_23
REMARK   18  A    between atoms: CA_23  and  C_24
REMARK   19  A    between atoms: C_24  and  OXT_26
REMARK                            x       y       z     vdW  Elec       q    Type
REMARK                         _______ _______ _______ _____ _____    ______ ____
ROOT
ATOM      1  C   UNK A   1       0.556  -1.134  -0.325  0.00  0.00    +0.000 C 
ENDROOT
BRANCH   1   2
ATOM      2  N   UNK A   1      -0.417  -0.082  -0.970  0.00  0.00    +0.000 N 
ATOM      3  C   UNK A   1      -1.298   0.611  -0.134  0.00  0.00    +0.000 C 
ATOM      4  O   UNK A   1      -0.678   1.216   0.797  0.00  0.00    +0.000 OA
ATOM      5  H   UNK A   1      -0.407   0.085  -1.941  0.00  0.00    +0.000 HD
BRANCH   3   6
ATOM      6  C   UNK A   1      -2.492   1.311  -0.607  0.00  0.00    +0.000 C 
BRANCH   6   7
ATOM      7  C   UNK A   1      -3.722   0.620  -0.200  0.00  0.00    +0.000 C 
BRANCH   7   8
ATOM      8  C   UNK A   1      -4.908   0.902  -1.299  0.00  0.00    +0.000 C 
BRANCH   8   9
ATOM      9  N   UNK A   1      -3.912   1.209  -2.483  0.00  0.00    +0.000 NA
ATOM     10  H   UNK A   1      -3.193   1.858  -2.163  0.00  0.00    +0.000 HD
ATOM     11  H   UNK A   1      -4.425   1.627  -3.260  0.00  0.00    +0.000 HD
ENDBRANCH   8   9
BRANCH   8  12
ATOM     12  C   UNK A   1      -5.057   2.459  -0.919  0.00  0.00    +0.000 C 
ATOM     13  O   UNK A   1      -5.884   3.036  -1.674  0.00  0.00    +0.000 OA
BRANCH  12  14
ATOM     14  O   UNK A   1      -4.003   3.205  -0.545  0.00  0.00    +0.000 OA
ATOM     15  H   UNK A   1      -3.347   2.842   0.016  0.00  0.00    +0.000 HD
ENDBRANCH  12  14
ENDBRANCH   8  12
ENDBRANCH   7   8
ENDBRANCH   6   7
ENDBRANCH   3   6
ENDBRANCH   1   2
BRANCH   1  16
ATOM     16  C   UNK A   1      -0.668  -1.996   0.282  0.00  0.00    +0.000 C 
ATOM     17  O   UNK A   1      -1.365  -2.571  -0.603  0.00  0.00    +0.000 OA
ATOM     18  N   GLY A   2      -0.407  -2.686   1.472  0.00  0.00    +0.000 N 
ATOM     19  H   GLY A   2      -0.072  -2.163   2.236  0.00  0.00    +0.000 HD
BRANCH  18  20
ATOM     20  CA  GLY A   2      -0.592  -4.102   1.664  0.00  0.00    +0.000 C 
BRANCH  20  21
ATOM     21  C   GLY A   2       0.294  -4.472   2.812  0.00  0.00    +0.000 C 
ATOM     22  O   GLY A   2       1.533  -4.373   2.681  0.00  0.00    +0.000 OA
BRANCH  21  23
ATOM     23  OXT GLY A   2      -0.284  -4.306   4.075  0.00  0.00    +0.000 OA
ATOM     24  HXT GLY A   2      -1.213  -4.379   4.178  0.00  0.00    +0.000 HD
ENDBRANCH  21  23
ENDBRANCH  20  21
ENDBRANCH  18  20
ENDBRANCH   1  16
BRANCH   1  25
ATOM     25  C   UNK A   1       0.760  -0.303   1.080  0.00  0.00    +0.000 C 
BRANCH  25  26
ATOM     26  S   UNK A   1       2.409   0.377   1.064  0.00  0.00    +0.000 S 
BRANCH  26  27
ATOM     27  C   UNK A   1       2.921   0.566  -0.656  0.00  0.00    +0.000 C 
BRANCH  27  28
ATOM     28  C   UNK A   1       3.043   2.008  -1.065  0.00  0.00    +0.000 C 
BRANCH  28  29
ATOM     29  C   UNK A   1       4.429   2.171  -1.680  0.00  0.00    +0.000 C 
BRANCH  29  30
ATOM     30  C   UNK A   1       5.399   1.776  -0.571  0.00  0.00    +0.000 C 
BRANCH  30  32
ATOM     31  C   UNK A   1       7.724   1.915  -1.456  0.00  0.00    +0.000 C 
ATOM     32  C   UNK A   1       6.618   2.642  -0.738  0.00  0.00    +0.000 C 
ENDBRANCH  30  32
ENDBRANCH  29  30
ENDBRANCH  28  29
ENDBRANCH  27  28
ENDBRANCH  26  27
ENDBRANCH  25  26
ENDBRANCH   1  25
TORSDOF 18
