REMARK  Name = 447123
REMARK  15 active torsions:
REMARK  status: ('A' for Active; 'I' for Inactive)
REMARK    1  A    between atoms: SG_1  and  CB_17
REMARK    2  A    between atoms: SG_1  and  C_21
REMARK    3  A    between atoms: O_4  and  C_19
REMARK    4  A    between atoms: O_6  and  C_21
REMARK    5  A    between atoms: O_7  and  C_22
REMARK    6  A    between atoms: N_9  and  CA_12
REMARK    7  A    between atoms: N_10  and  CA_20
REMARK    8  A    between atoms: N_11  and  CA_15
REMARK    9  A    between atoms: CA_12  and  CB_17
REMARK   10  A    between atoms: CA_12  and  C_18
REMARK   11  A    between atoms: C_13  and  C_14
REMARK   12  A    between atoms: C_13  and  CA_15
REMARK   13  A    between atoms: C_14  and  C_16
REMARK   14  A    between atoms: CA_15  and  C_19
REMARK   15  A    between atoms: CA_20  and  C_22
REMARK                            x       y       z     vdW  Elec       q    Type
REMARK                         _______ _______ _______ _____ _____    ______ ____
ROOT
ATOM      1  CA  UNL     1       1.040  -0.211  -0.904  0.00  0.00    +0.000 C 
ENDROOT
BRANCH   1   3
ATOM      2  O   UNL     1      -1.537  -0.136  -2.200  0.00  0.00    +0.000 OA
ATOM      3  N   UNL     1      -0.250  -0.410  -0.286  0.00  0.00    +0.000 N 
ATOM      4  C   UNL     1      -1.441  -0.354  -0.996  0.00  0.00    +0.000 C 
ATOM      5  H   UNL     1      -0.281  -0.574   0.717  0.00  0.00    +0.000 HD
BRANCH   4   6
ATOM      6  C   UNL     1      -2.640  -0.590  -0.093  0.00  0.00    +0.000 C 
BRANCH   6   7
ATOM      7  C   UNL     1      -3.965  -0.533  -0.857  0.00  0.00    +0.000 C 
BRANCH   7   8
ATOM      8  CA  UNL     1      -5.177  -0.842   0.029  0.00  0.00    +0.000 C 
BRANCH   8   9
ATOM      9  N   UNL     1      -6.401  -0.766  -0.772  0.00  0.00    +0.000 NA
ATOM     10  H1  UNL     1      -7.198  -1.052  -0.204  0.00  0.00    +0.000 HD
ATOM     11  H2  UNL     1      -6.348  -1.435  -1.540  0.00  0.00    +0.000 HD
ENDBRANCH   8   9
BRANCH   8  13
ATOM     12  OXT UNL     1      -5.912   1.250   1.042  0.00  0.00    +0.000 OA
ATOM     13  C   UNL     1      -5.321   0.181   1.141  0.00  0.00    +0.000 C 
BRANCH  13  14
ATOM     14  O   UNL     1      -4.692  -0.205   2.281  0.00  0.00    +0.000 OA
ATOM     15  H   UNL     1      -4.777   0.466   2.992  0.00  0.00    +0.000 HD
ENDBRANCH  13  14
ENDBRANCH   8  13
ENDBRANCH   7   8
ENDBRANCH   6   7
ENDBRANCH   4   6
ENDBRANCH   1   3
BRANCH   1  18
ATOM     16  O   UNL     1       1.799  -1.786   0.779  0.00  0.00    +0.000 OA
ATOM     17  N   UNL     1       3.307  -1.059  -0.827  0.00  0.00    +0.000 N 
ATOM     18  C   ACE A   1       2.062  -1.113  -0.215  0.00  0.00    +0.000 C 
ATOM     19  H   UNL     1       3.436  -0.491  -1.659  0.00  0.00    +0.000 HD
BRANCH  17  20
ATOM     20  CA  UNL     1       4.445  -1.805  -0.345  0.00  0.00    +0.000 C 
BRANCH  20  22
ATOM     21  OXT UNL     1       6.273  -1.493   1.190  0.00  0.00    +0.000 OA
ATOM     22  C   UNL     1       5.262  -1.042   0.666  0.00  0.00    +0.000 C 
BRANCH  22  23
ATOM     23  O   UNL     1       4.771   0.189   0.940  0.00  0.00    +0.000 OA
ATOM     24  H   UNL     1       5.319   0.665   1.600  0.00  0.00    +0.000 HD
ENDBRANCH  22  23
ENDBRANCH  20  22
ENDBRANCH  17  20
ENDBRANCH   1  18
BRANCH   1  25
ATOM     25  CB  UNL     1       1.452   1.263  -0.931  0.00  0.00    +0.000 C 
BRANCH  25  26
ATOM     26  SG  UNL     1       1.663   1.997   0.724  0.00  0.00    +0.000 S 
BRANCH  26  27
ATOM     27  C   UNL     1       2.048   3.691   0.220  0.00  0.00    +0.000 C 
BRANCH  27  28
ATOM     28  O   UNL     1       3.212   3.773  -0.588  0.00  0.00    +0.000 OA
ATOM     29  H   UNL     1       3.344   4.712  -0.803  0.00  0.00    +0.000 HD
ENDBRANCH  27  28
ENDBRANCH  26  27
ENDBRANCH  25  26
ENDBRANCH   1  25
TORSDOF 15
