REMARK  Name = 5288675
REMARK  14 active torsions:
REMARK  status: ('A' for Active; 'I' for Inactive)
REMARK    1  A    between atoms: S_1  and  C_11
REMARK    2  A    between atoms: S_1  and  C_13
REMARK    3  A    between atoms: O_2  and  C_9
REMARK    4  A    between atoms: O_3  and  C_10
REMARK    5  A    between atoms: O_5  and  C_16
REMARK    6  A    between atoms: O_6  and  C_17
REMARK    7  A    between atoms: N_8  and  C_14
REMARK    8  A    between atoms: C_9  and  C_10
REMARK    9  A    between atoms: C_9  and  C_11
REMARK   10  A    between atoms: C_10  and  C_15
REMARK   11  A    between atoms: C_12  and  C_13
REMARK   12  A    between atoms: C_12  and  C_14
REMARK   13  A    between atoms: C_14  and  C_17
REMARK   14  A    between atoms: C_15  and  C_16
REMARK                            x       y       z     vdW  Elec       q    Type
REMARK                         _______ _______ _______ _____ _____    ______ ____
ROOT
ATOM      1  C   UNK     1       0.737   1.231   0.695  0.00  0.00    +0.000 C 
ENDROOT
BRANCH   1   2
ATOM      2  S   UNK     1      -0.819   2.108   0.335  0.00  0.00    +0.000 S 
BRANCH   2   3
ATOM      3  C   UNK     1      -1.385   1.073  -1.034  0.00  0.00    +0.000 C 
BRANCH   3   4
ATOM      4  C   UNK     1      -1.586  -0.393  -0.638  0.00  0.00    +0.000 C 
BRANCH   4   5
ATOM      5  C   UNK     1      -2.595  -0.640   0.492  0.00  0.00    +0.000 C 
BRANCH   5   6
ATOM      6  N   UNK     1      -2.743  -2.084   0.700  0.00  0.00    +0.000 NA
ATOM      7  H   UNK     1      -3.353  -2.254   1.499  0.00  0.00    +0.000 HD
ATOM      8  H   UNK     1      -1.839  -2.487   0.945  0.00  0.00    +0.000 HD
ENDBRANCH   5   6
BRANCH   5  10
ATOM      9  O   UNK     1      -4.808  -0.730  -0.526  0.00  0.00    +0.000 OA
ATOM     10  C   UNK     1      -3.971  -0.115   0.123  0.00  0.00    +0.000 C 
BRANCH  10  11
ATOM     11  O   UNK     1      -4.199   1.129   0.620  0.00  0.00    +0.000 OA
ATOM     12  H   UNK     1      -5.093   1.458   0.386  0.00  0.00    +0.000 HD
ENDBRANCH  10  11
ENDBRANCH   5  10
ENDBRANCH   4   5
ENDBRANCH   3   4
ENDBRANCH   2   3
ENDBRANCH   1   2
BRANCH   1  13
ATOM     13  C   UNK     1       1.748   1.266  -0.461  0.00  0.00    +0.000 C 
BRANCH  13  14
ATOM     14  O   UNK     1       1.994   2.626  -0.825  0.00  0.00    +0.000 OA
ATOM     15  H   UNK     1       2.591   2.623  -1.592  0.00  0.00    +0.000 HD
ENDBRANCH  13  14
BRANCH  13  16
ATOM     16  C   UNK     1       3.095   0.580  -0.188  0.00  0.00    +0.000 C 
BRANCH  16  17
ATOM     17  O   UNK     1       3.731   1.155   0.947  0.00  0.00    +0.000 OA
ATOM     18  H   UNK     1       3.171   1.003   1.726  0.00  0.00    +0.000 HD
ENDBRANCH  16  17
BRANCH  16  20
ATOM     19  O   UNK     1       3.225  -1.388   1.210  0.00  0.00    +0.000 OA
ATOM     20  C   UNK     1       2.932  -0.912   0.113  0.00  0.00    +0.000 C 
BRANCH  20  21
ATOM     21  C   UNK     1       2.368  -1.781  -0.996  0.00  0.00    +0.000 C 
BRANCH  21  22
ATOM     22  O   UNK     1       2.275  -3.125  -0.569  0.00  0.00    +0.000 OA
ATOM     23  H   UNK     1       3.180  -3.447  -0.417  0.00  0.00    +0.000 HD
ENDBRANCH  21  22
ENDBRANCH  20  21
ENDBRANCH  16  20
ENDBRANCH  13  16
ENDBRANCH   1  13
TORSDOF 14
