REMARK  Name = 6950514
REMARK  5 active torsions:
REMARK  status: ('A' for Active; 'I' for Inactive)
REMARK    1  A    between atoms: N_3  and  CA_4
REMARK    2  A    between atoms: CA_4  and  C_5
REMARK    3  A    between atoms: CA_4  and  C_8
REMARK    4  A    between atoms: C_5  and  C_6
REMARK    5  A    between atoms: C_6  and  C_7
REMARK                            x       y       z     vdW  Elec       q    Type
REMARK                         _______ _______ _______ _____ _____    ______ ____
ROOT
ATOM      1  CA  UNL     1       0.495   0.618   0.594  0.00  0.00    +0.000 C 
ENDROOT
BRANCH   1   2
ATOM      2  N   UNL     1       0.544   1.909  -0.161  0.00  0.00    +0.000 N 
ATOM      3  H1  UNL     1      -0.064   2.624   0.261  0.00  0.00    +0.000 HD
ATOM      4  H2  UNL     1       0.258   1.793  -1.142  0.00  0.00    +0.000 HD
ATOM      5  H3  UNL     1       1.499   2.292  -0.170  0.00  0.00    +0.000 HD
ENDBRANCH   1   2
BRANCH   1   8
ATOM      6  O   UNL     1       2.373  -0.078  -0.675  0.00  0.00    +0.000 OA
ATOM      7  OXT UNL     1       1.050  -1.673   0.280  0.00  0.00    +0.000 OA
ATOM      8  C   UNL     1       1.398  -0.487   0.019  0.00  0.00    +0.000 C 
ENDBRANCH   1   8
BRANCH   1   9
ATOM      9  C   UNL     1      -0.982   0.240   0.768  0.00  0.00    +0.000 C 
BRANCH   9  10
ATOM     10  C   UNL     1      -1.705  -0.110  -0.537  0.00  0.00    +0.000 C 
ATOM     11  C   UNL     1      -3.174  -0.418  -0.288  0.00  0.00    +0.000 C 
ENDBRANCH   9  10
ENDBRANCH   1   9
TORSDOF 4
