REMARK  Name = 12647
REMARK  6 active torsions:
REMARK  status: ('A' for Active; 'I' for Inactive)
REMARK    1  A    between atoms: O_1  and  C_7
REMARK    2  A    between atoms: O_2  and  C_8
REMARK    3  A    between atoms: N_4  and  CA_5
REMARK    4  A    between atoms: CA_5  and  C_6
REMARK    5  A    between atoms: CA_5  and  C_8
REMARK    6  A    between atoms: C_6  and  C_7
REMARK                            x       y       z     vdW  Elec       q    Type
REMARK                         _______ _______ _______ _____ _____    ______ ____
ROOT
ATOM      1  CA  UNL     1      -0.311  -0.360   0.487  0.00  0.00    +0.000 C 
ENDROOT
BRANCH   1   2
ATOM      2  N   UNL     1      -0.346  -1.783   0.150  0.00  0.00    +0.000 NA
ATOM      3  H1  UNL     1      -0.397  -1.903  -0.861  0.00  0.00    +0.000 HD
ATOM      4  H2  UNL     1      -1.185  -2.213   0.539  0.00  0.00    +0.000 HD
ENDBRANCH   1   2
BRANCH   1   6
ATOM      5  OXT UNL     1      -2.469  -0.331  -0.659  0.00  0.00    +0.000 OA
ATOM      6  C   UNL     1      -1.606   0.254  -0.018  0.00  0.00    +0.000 C 
BRANCH   6   7
ATOM      7  O   UNL     1      -1.718   1.562   0.338  0.00  0.00    +0.000 OA
ATOM      8  H   UNL     1      -2.557   1.957   0.016  0.00  0.00    +0.000 HD
ENDBRANCH   6   7
ENDBRANCH   1   6
BRANCH   1   9
ATOM      9  C   UNL     1       0.891   0.358  -0.145  0.00  0.00    +0.000 C 
BRANCH   9  10
ATOM     10  C   UNL     1       2.255  -0.221   0.224  0.00  0.00    +0.000 C 
BRANCH  10  11
ATOM     11  O   UNL     1       3.305   0.522  -0.377  0.00  0.00    +0.000 OA
ATOM     12  H   UNL     1       4.141   0.109  -0.101  0.00  0.00    +0.000 HD
ENDBRANCH  10  11
ENDBRANCH   9  10
ENDBRANCH   1   9
TORSDOF 6
