REMARK  Name = 123871
REMARK  6 active torsions:
REMARK  status: ('A' for Active; 'I' for Inactive)
REMARK    1  A    between atoms: O_1  and  C_10
REMARK    2  A    between atoms: O_2  and  C_12
REMARK    3  A    between atoms: N_6  and  CA_8
REMARK    4  A    between atoms: C_7  and  CA_8
REMARK    5  A    between atoms: C_7  and  C_9
REMARK    6  A    between atoms: CA_8  and  C_12
REMARK                            x       y       z     vdW  Elec       q    Type
REMARK                         _______ _______ _______ _____ _____    ______ ____
ROOT
ATOM      1  O   UNL     1       2.460   2.148  -0.631  0.00  0.00    +0.000 OA
ATOM      2  O   UNL     1       3.864   0.224   0.617  0.00  0.00    +0.000 OA
ATOM      3  C   UNL     1       0.031  -0.459  -0.608  0.00  0.00    +0.000 C 
ATOM      4  C   UNL     1       0.802  -1.493   0.068  0.00  0.00    +0.000 C 
ATOM      5  C   UNL     1       0.553   0.754  -0.852  0.00  0.00    +0.000 C 
ATOM      6  C   UNL     1       2.063  -1.313   0.485  0.00  0.00    +0.000 C 
ATOM      7  C   UNL     1       1.935   1.063  -0.435  0.00  0.00    +0.000 C 
ATOM      8  C   UNL     1       2.720  -0.012   0.261  0.00  0.00    +0.000 C 
ENDROOT
BRANCH   4   9
ATOM      9  O   UNL     1       0.145  -2.694   0.255  0.00  0.00    +0.000 OA
ATOM     10  H   UNL     1       0.750  -3.304   0.711  0.00  0.00    +0.000 HD
ENDBRANCH   4   9
BRANCH   3  11
ATOM     11  C   UNL     1      -1.376  -0.782  -1.029  0.00  0.00    +0.000 C 
BRANCH  11  12
ATOM     12  CA  UNL     1      -2.383  -0.519   0.093  0.00  0.00    +0.000 C 
BRANCH  12  13
ATOM     13  N   UNL     1      -3.735  -0.833  -0.367  0.00  0.00    +0.000 NA
ATOM     14  H1  UNL     1      -4.389  -0.753   0.411  0.00  0.00    +0.000 HD
ATOM     15  H2  UNL     1      -3.776  -1.805  -0.671  0.00  0.00    +0.000 HD
ENDBRANCH  12  13
BRANCH  12  17
ATOM     16  OXT UNL     1      -3.111   1.810   0.042  0.00  0.00    +0.000 OA
ATOM     17  C   UNL     1      -2.411   0.935   0.535  0.00  0.00    +0.000 C 
BRANCH  17  18
ATOM     18  O   UNL     1      -1.558   1.171   1.568  0.00  0.00    +0.000 OA
ATOM     19  H   UNL     1      -1.577   2.110   1.850  0.00  0.00    +0.000 HD
ENDBRANCH  17  18
ENDBRANCH  12  17
ENDBRANCH  11  12
ENDBRANCH   3  11
TORSDOF 6
