REMARK  Name = 193653
REMARK  8 active torsions:
REMARK  status: ('A' for Active; 'I' for Inactive)
REMARK    1  A    between atoms: S_1  and  C_8
REMARK    2  A    between atoms: S_1  and  C_10
REMARK    3  A    between atoms: O_2  and  C_9
REMARK    4  A    between atoms: O_4  and  C_11
REMARK    5  A    between atoms: N_6  and  C_7
REMARK    6  A    between atoms: C_7  and  C_8
REMARK    7  A    between atoms: C_7  and  C_9
REMARK    8  A    between atoms: C_10  and  C_11
REMARK                            x       y       z     vdW  Elec       q    Type
REMARK                         _______ _______ _______ _____ _____    ______ ____
ROOT
ATOM      1  C   UNK     1      -2.076  -0.585   0.531  0.00  0.00    +0.000 C 
ENDROOT
BRANCH   1   2
ATOM      2  N   UNK     1      -3.072  -1.619   0.243  0.00  0.00    +0.000 NA
ATOM      3  H   UNK     1      -3.985  -1.317   0.582  0.00  0.00    +0.000 HD
ATOM      4  H   UNK     1      -2.843  -2.466   0.761  0.00  0.00    +0.000 HD
ENDBRANCH   1   2
BRANCH   1   6
ATOM      5  O   UNK     1      -2.484   0.693  -1.482  0.00  0.00    +0.000 OA
ATOM      6  C   UNK     1      -2.462   0.653  -0.258  0.00  0.00    +0.000 C 
BRANCH   6   7
ATOM      7  O   UNK     1      -2.748   1.729   0.518  0.00  0.00    +0.000 OA
ATOM      8  H   UNK     1      -2.978   2.517  -0.019  0.00  0.00    +0.000 HD
ENDBRANCH   6   7
ENDBRANCH   1   6
BRANCH   1   9
ATOM      9  C   UNK     1      -0.677  -1.089   0.169  0.00  0.00    +0.000 C 
BRANCH   9  10
ATOM     10  S   UNK     1       0.602   0.170   0.478  0.00  0.00    +0.000 S 
BRANCH  10  11
ATOM     11  C   UNK     1       2.026  -0.755  -0.140  0.00  0.00    +0.000 C 
BRANCH  11  13
ATOM     12  O   UNK     1       3.425   0.924   0.877  0.00  0.00    +0.000 OA
ATOM     13  C   UNK     1       3.264   0.083   0.002  0.00  0.00    +0.000 C 
BRANCH  13  14
ATOM     14  O   UNK     1       4.200  -0.203  -0.938  0.00  0.00    +0.000 OA
ATOM     15  H   UNK     1       5.006   0.346  -0.831  0.00  0.00    +0.000 HD
ENDBRANCH  13  14
ENDBRANCH  11  13
ENDBRANCH  10  11
ENDBRANCH   9  10
ENDBRANCH   1   9
TORSDOF 8
