REMARK  Name = 91552
REMARK  6 active torsions:
REMARK  status: ('A' for Active; 'I' for Inactive)
REMARK    1  A    between atoms: S_1  and  C_7
REMARK    2  A    between atoms: O_2  and  C_8
REMARK    3  A    between atoms: N_4  and  CA_5
REMARK    4  A    between atoms: CA_5  and  C_6
REMARK    5  A    between atoms: CA_5  and  C_8
REMARK    6  A    between atoms: C_6  and  C_7
REMARK                            x       y       z     vdW  Elec       q    Type
REMARK                         _______ _______ _______ _____ _____    ______ ____
ROOT
ATOM      1  CA  UNL     1      -0.553   0.621  -0.706  0.00  0.00    +0.000 C 
ENDROOT
BRANCH   1   2
ATOM      2  N   UNL     1      -0.615   1.882   0.040  0.00  0.00    +0.000 NA
ATOM      3  H1  UNL     1      -1.575   2.225   0.051  0.00  0.00    +0.000 HD
ATOM      4  H2  UNL     1      -0.066   2.591  -0.445  0.00  0.00    +0.000 HD
ENDBRANCH   1   2
BRANCH   1   6
ATOM      5  OXT UNL     1      -1.905  -0.169   1.162  0.00  0.00    +0.000 OA
ATOM      6  C   UNL     1      -1.375  -0.386   0.080  0.00  0.00    +0.000 C 
BRANCH   6   7
ATOM      7  O   UNL     1      -1.491  -1.574  -0.567  0.00  0.00    +0.000 OA
ATOM      8  H   UNL     1      -2.032  -2.216  -0.059  0.00  0.00    +0.000 HD
ENDBRANCH   6   7
ENDBRANCH   1   6
BRANCH   1   9
ATOM      9  C   UNL     1       0.911   0.172  -0.819  0.00  0.00    +0.000 C 
BRANCH   9  10
ATOM     10  C   UNL     1       1.656   0.009   0.509  0.00  0.00    +0.000 C 
BRANCH  10  11
ATOM     11  S   UNL     1       3.372  -0.555   0.301  0.00  0.00    +0.000 S 
ATOM     12  H   UNL     1       3.795   0.499  -0.412  0.00  0.00    +0.000 HD
ENDBRANCH  10  11
ENDBRANCH   9  10
ENDBRANCH   1   9
TORSDOF 6
