REMARK  Name = 439750
REMARK  7 active torsions:
REMARK  status: ('A' for Active; 'I' for Inactive)
REMARK    1  A    between atoms: SD_1  and  CG_8
REMARK    2  A    between atoms: SD_1  and  CE_11
REMARK    3  A    between atoms: O_2  and  C_9
REMARK    4  A    between atoms: N_5  and  CA_6
REMARK    5  A    between atoms: CA_6  and  CB_7
REMARK    6  A    between atoms: CA_6  and  C_9
REMARK    7  A    between atoms: CB_7  and  CG_8
REMARK                            x       y       z     vdW  Elec       q    Type
REMARK                         _______ _______ _______ _____ _____    ______ ____
ROOT
ATOM      1  CA  UNL     1      -0.873   0.184   0.398  0.00  0.00    +0.000 C 
ENDROOT
BRANCH   1   3
ATOM      2  O   UNL     1      -2.596  -2.189   0.492  0.00  0.00    +0.000 OA
ATOM      3  N   UNL     1      -1.399  -0.576  -0.707  0.00  0.00    +0.000 N 
ATOM      4  C   ACE A   0      -2.206  -1.684  -0.553  0.00  0.00    +0.000 C 
ATOM      5  H   UNL     1      -1.152  -0.288  -1.649  0.00  0.00    +0.000 HD
ENDBRANCH   1   3
BRANCH   1   7
ATOM      6  OXT UNL     1      -0.461   2.512   0.921  0.00  0.00    +0.000 OA
ATOM      7  C   UNL     1      -0.788   1.671   0.090  0.00  0.00    +0.000 C 
BRANCH   7   8
ATOM      8  O   UNL     1      -1.158   2.005  -1.170  0.00  0.00    +0.000 OA
ATOM      9  H   UNL     1      -1.113   2.973  -1.321  0.00  0.00    +0.000 HD
ENDBRANCH   7   8
ENDBRANCH   1   7
BRANCH   1  10
ATOM     10  CB  UNL     1       0.467  -0.383   0.888  0.00  0.00    +0.000 C 
BRANCH  10  11
ATOM     11  CG  UNL     1       1.614  -0.189  -0.107  0.00  0.00    +0.000 C 
BRANCH  11  12
ATOM     12  SD  UNL     1       3.151  -0.896   0.556  0.00  0.00    +0.000 S 
ATOM     13  CE  UNL     1       4.251  -0.455  -0.809  0.00  0.00    +0.000 C 
ENDBRANCH  11  12
ENDBRANCH  10  11
ENDBRANCH   1  10
TORSDOF 6
