REMARK  Name = 49866644
REMARK  5 active torsions:
REMARK  status: ('A' for Active; 'I' for Inactive)
REMARK    1  A    between atoms: O_1  and  C_7
REMARK    2  A    between atoms: N_4  and  CA_5
REMARK    3  A    between atoms: CA_5  and  C_6
REMARK    4  A    between atoms: CA_5  and  C_7
REMARK    5  A    between atoms: C_6  and  C_8
REMARK                            x       y       z     vdW  Elec       q    Type
REMARK                         _______ _______ _______ _____ _____    ______ ____
ROOT
ATOM      1  CA  UNL     1       0.257   0.625  -0.438  0.00  0.00    +0.000 C 
ENDROOT
BRANCH   1   2
ATOM      2  N   UNL     1       1.199   1.738  -0.592  0.00  0.00    +0.000 NA
ATOM      3  H1  UNL     1       0.700   2.565  -0.919  0.00  0.00    +0.000 HD
ATOM      4  H2  UNL     1       1.877   1.513  -1.320  0.00  0.00    +0.000 HD
ENDBRANCH   1   2
BRANCH   1   6
ATOM      5  OXT UNL     1       2.039  -0.506   0.793  0.00  0.00    +0.000 OA
ATOM      6  C   UNL     1       1.071  -0.565   0.046  0.00  0.00    +0.000 C 
BRANCH   6   7
ATOM      7  O   UNL     1       0.614  -1.738  -0.466  0.00  0.00    +0.000 OA
ATOM      8  H   UNL     1       1.146  -2.503  -0.159  0.00  0.00    +0.000 HD
ENDBRANCH   6   7
ENDBRANCH   1   6
BRANCH   1   9
ATOM      9  C   UNL     1      -0.824   0.992   0.581  0.00  0.00    +0.000 C 
BRANCH   9  11
ATOM     10  O   UNL     1      -2.280  -0.699  -0.391  0.00  0.00    +0.000 OA
ATOM     11  C   UNL     1      -2.078   0.153   0.467  0.00  0.00    +0.000 C 
ENDBRANCH   9  11
ENDBRANCH   1   9
TORSDOF 5
