REMARK  Name = 
REMARK  10 active torsions:
REMARK  status: ('A' for Active; 'I' for Inactive)
REMARK    1  A    between atoms: N_1  and  CA_2
REMARK    2  A    between atoms: CA_2  and  C_3
REMARK    3  A    between atoms: CA_2  and  C_11
REMARK    4  A    between atoms: C_3  and  C_4
REMARK    5  A    between atoms: C_4  and  C_5
REMARK    6  A    between atoms: C_6  and  B_7
REMARK    7  A    between atoms: B_7  and  O_8
REMARK    8  A    between atoms: B_7  and  O_9
REMARK    9  A    between atoms: B_7  and  O_10
REMARK   10  A    between atoms: C_11  and  OXT_13
REMARK                            x       y       z     vdW  Elec       q    Type
REMARK                         _______ _______ _______ _____ _____    ______ ____
ROOT
ATOM      1  C   UNL     1       0.825  -0.046  -0.530  0.00  0.00    +0.000 C 
ENDROOT
BRANCH   1   2
ATOM      2  C   UNL     1      -0.522  -0.222  -1.087  0.00  0.00    +0.000 C 
ATOM      3  C   UNL     1      -1.565   0.495  -0.718  0.00  0.00    +0.000 C 
BRANCH   3   4
ATOM      4  B   UNL     1      -2.976  -0.156  -0.425  0.00  0.00    +0.000 B 
BRANCH   4   5
ATOM      5  O   UNL     1      -3.122  -0.447   0.997  0.00  0.00    +0.000 OA
ATOM      6  H   UNL     1      -3.081   0.380   1.502  0.00  0.00    +0.000 HD
ENDBRANCH   4   5
BRANCH   4   7
ATOM      7  O   UNL     1      -3.982   0.816  -0.834  0.00  0.00    +0.000 OA
ATOM      8  H   UNL     1      -3.904   1.612  -0.284  0.00  0.00    +0.000 HD
ENDBRANCH   4   7
BRANCH   4   9
ATOM      9  O   UNL     1      -3.034  -1.399  -1.224  0.00  0.00    +0.000 OA
ATOM     10  H   UNL     1      -2.348  -2.013  -0.916  0.00  0.00    +0.000 HD
ENDBRANCH   4   9
ENDBRANCH   3   4
ENDBRANCH   1   2
BRANCH   1  11
ATOM     11  C   UNL     1       1.216  -1.257   0.264  0.00  0.00    +0.000 C 
BRANCH  11  12
ATOM     12  CA  UNL     1       2.225  -0.723   1.453  0.00  0.00    +0.000 C 
BRANCH  12  13
ATOM     13  N   UNL     1       1.221   0.425   1.864  0.00  0.00    +0.000 NA
ATOM     14  H1  UNL     1       0.555   0.066   2.548  0.00  0.00    +0.000 HD
ATOM     15  H2  UNL     1       0.718   0.749   1.038  0.00  0.00    +0.000 HD
ENDBRANCH  12  13
BRANCH  12  16
ATOM     16  C   UNL     1       3.080   0.170   0.417  0.00  0.00    +0.000 C 
ATOM     17  O   UNL     1       2.983   1.386   0.434  0.00  0.00    +0.000 OA
BRANCH  16  18
ATOM     18  OXT UNL     1       3.650  -0.587  -0.612  0.00  0.00    +0.000 OA
ATOM     19  HXT UNL     1       3.683  -1.521  -0.543  0.00  0.00    +0.000 HD
ENDBRANCH  16  18
ENDBRANCH  12  16
ENDBRANCH  11  12
ENDBRANCH   1  11
TORSDOF 10
