REMARK  Name = 46937099
REMARK  14 active torsions:
REMARK  status: ('A' for Active; 'I' for Inactive)
REMARK    1  A    between atoms: S_1  and  C_11
REMARK    2  A    between atoms: S_1  and  C_14
REMARK    3  A    between atoms: O_2  and  C_16
REMARK    4  A    between atoms: N_4  and  C_15
REMARK    5  A    between atoms: C_5  and  C_6
REMARK    6  A    between atoms: C_5  and  C_7
REMARK    7  A    between atoms: C_6  and  C_8
REMARK    8  A    between atoms: C_7  and  C_9
REMARK    9  A    between atoms: C_8  and  C_10
REMARK   10  A    between atoms: C_9  and  C_11
REMARK   11  A    between atoms: C_10  and  C_12
REMARK   12  A    between atoms: C_12  and  C_13
REMARK   13  A    between atoms: C_14  and  C_15
REMARK   14  A    between atoms: C_15  and  C_16
REMARK                            x       y       z     vdW  Elec       q    Type
REMARK                         _______ _______ _______ _____ _____    ______ ____
ROOT
ATOM      1  S   UNK     1      -2.618   1.367  -1.099  0.00  0.00    +0.000 S 
ENDROOT
BRANCH   1   2
ATOM      2  C   UNK     1      -1.721   2.687  -0.231  0.00  0.00    +0.000 C 
BRANCH   2   3
ATOM      3  C   UNK     1      -0.526   2.171   0.571  0.00  0.00    +0.000 C 
BRANCH   3   4
ATOM      4  C   UNK     1       0.549   1.501  -0.291  0.00  0.00    +0.000 C 
BRANCH   4   5
ATOM      5  C   UNK     1       1.761   1.099   0.552  0.00  0.00    +0.000 C 
BRANCH   5   6
ATOM      6  C   UNK     1       2.857   0.471  -0.312  0.00  0.00    +0.000 C 
BRANCH   6   7
ATOM      7  C   UNK     1       4.080   0.099   0.528  0.00  0.00    +0.000 C 
BRANCH   7   8
ATOM      8  C   UNK     1       5.223  -0.506  -0.294  0.00  0.00    +0.000 C 
BRANCH   8   9
ATOM      9  C   UNK     1       6.483  -0.877   0.492  0.00  0.00    +0.000 C 
ATOM     10  C   UNK     1       7.604  -1.423  -0.379  0.00  0.00    +0.000 C 
ENDBRANCH   8   9
ENDBRANCH   7   8
ENDBRANCH   6   7
ENDBRANCH   5   6
ENDBRANCH   4   5
ENDBRANCH   3   4
ENDBRANCH   2   3
ENDBRANCH   1   2
BRANCH   1  11
ATOM     11  C   UNK     1      -3.586   0.748   0.296  0.00  0.00    +0.000 C 
BRANCH  11  12
ATOM     12  C   UNK     1      -4.436  -0.464  -0.090  0.00  0.00    +0.000 C 
BRANCH  12  13
ATOM     13  N   UNK     1      -5.511  -0.653   0.886  0.00  0.00    +0.000 NA
ATOM     14  H   UNK     1      -6.093   0.183   0.923  0.00  0.00    +0.000 HD
ATOM     15  H   UNK     1      -6.123  -1.409   0.579  0.00  0.00    +0.000 HD
ENDBRANCH  12  13
BRANCH  12  17
ATOM     16  O   UNK     1      -3.437  -2.456   0.850  0.00  0.00    +0.000 OA
ATOM     17  C   UNK     1      -3.625  -1.745  -0.131  0.00  0.00    +0.000 C 
BRANCH  17  18
ATOM     18  O   UNK     1      -3.094  -2.018  -1.349  0.00  0.00    +0.000 OA
ATOM     19  H   UNK     1      -2.562  -2.842  -1.341  0.00  0.00    +0.000 HD
ENDBRANCH  17  18
ENDBRANCH  12  17
ENDBRANCH  11  12
ENDBRANCH   1  11
TORSDOF 13
