REMARK  Name = 6420121
REMARK  9 active torsions:
REMARK  status: ('A' for Active; 'I' for Inactive)
REMARK    1  A    between atoms: O_2  and  C_19
REMARK    2  A    between atoms: N_4  and  C_6
REMARK    3  A    between atoms: N_5  and  C_15
REMARK    4  A    between atoms: C_13  and  C_14
REMARK    5  A    between atoms: C_13  and  C_15
REMARK    6  A    between atoms: C_14  and  C_16
REMARK    7  A    between atoms: C_16  and  C_17
REMARK    8  A    between atoms: C_17  and  C_18
REMARK    9  A    between atoms: C_18  and  C_19
REMARK                            x       y       z     vdW  Elec       q    Type
REMARK                         _______ _______ _______ _____ _____    ______ ____
ROOT
ATOM      1  O   UNL     1      -2.481   2.231   1.071  0.00  0.00    +0.000 OA
ATOM      2  N   UNL     1      -2.917   0.458  -0.362  0.00  0.00    +0.000 N 
ATOM      3  N   UNL     1      -1.160   1.883  -0.805  0.00  0.00    +0.000 N 
ATOM      4  C   UNL     1      -2.213   1.582   0.061  0.00  0.00    +0.000 C 
ATOM      5  H   UNL     1      -2.565  -0.046  -1.170  0.00  0.00    +0.000 HD
ATOM      6  H   UNL     1      -1.012   1.288  -1.614  0.00  0.00    +0.000 HD
ENDROOT
BRANCH   2   7
ATOM      7  C   UNL     1      -4.057  -0.076   0.349  0.00  0.00    +0.000 C 
ATOM      8  C   UNL     1      -3.617  -1.078   1.422  0.00  0.00    +0.000 C 
ATOM      9  C   UNL     1      -5.065  -0.706  -0.619  0.00  0.00    +0.000 C 
ATOM     10  C   UNL     1      -3.116  -2.393   0.824  0.00  0.00    +0.000 C 
ATOM     11  C   UNL     1      -4.561  -2.021  -1.213  0.00  0.00    +0.000 C 
ATOM     12  C   UNL     1      -4.140  -3.005  -0.126  0.00  0.00    +0.000 C 
ENDBRANCH   2   7
BRANCH   3  13
ATOM     13  C   UNL     1      -0.272   2.994  -0.604  0.00  0.00    +0.000 C 
BRANCH  13  14
ATOM     14  C   UNL     1       0.946   2.621   0.236  0.00  0.00    +0.000 C 
BRANCH  14  15
ATOM     15  C   UNL     1       1.799   1.531  -0.422  0.00  0.00    +0.000 C 
BRANCH  15  16
ATOM     16  C   UNL     1       3.054   1.173   0.380  0.00  0.00    +0.000 C 
BRANCH  16  17
ATOM     17  C   UNL     1       3.893   0.066  -0.268  0.00  0.00    +0.000 C 
BRANCH  17  18
ATOM     18  C   UNL     1       5.132  -0.284   0.558  0.00  0.00    +0.000 C 
BRANCH  18  20
ATOM     19  O   UNL     1       5.768  -1.905  -1.146  0.00  0.00    +0.000 OA
ATOM     20  C   UNL     1       5.981  -1.368  -0.068  0.00  0.00    +0.000 C 
BRANCH  20  21
ATOM     21  O   UNL     1       7.026  -1.704   0.733  0.00  0.00    +0.000 OA
ATOM     22  H   UNL     1       7.576  -2.414   0.338  0.00  0.00    +0.000 HD
ENDBRANCH  20  21
ENDBRANCH  18  20
ENDBRANCH  17  18
ENDBRANCH  16  17
ENDBRANCH  15  16
ENDBRANCH  14  15
ENDBRANCH  13  14
ENDBRANCH   3  13
TORSDOF 9
