REMARK  Name = 
REMARK  21 active torsions:
REMARK  status: ('A' for Active; 'I' for Inactive)
REMARK    1  A    between atoms: C_5  and  C_6
REMARK    2  A    between atoms: N_8  and  C_9
REMARK    3  A    between atoms: C_9  and  C_10
REMARK    4  A    between atoms: C_9  and  C_11
REMARK    5  A    between atoms: C_14  and  C_16
REMARK    6  A    between atoms: C_16  and  N_17
REMARK    7  A    between atoms: C_16  and  C_19
REMARK    8  A    between atoms: C_18  and  C_22
REMARK    9  A    between atoms: C_19  and  C_20
REMARK   10  A    between atoms: C_19  and  C_21
REMARK   11  A    between atoms: C_22  and  C_24
REMARK   12  A    between atoms: C_22  and  N_26
REMARK   13  A    between atoms: C_24  and  C_25
REMARK   14  A    between atoms: C_24  and  C_28
REMARK   15  A    between atoms: C_27  and  C_30
REMARK   16  A    between atoms: C_28  and  C_29
REMARK   17  A    between atoms: C_30  and  C_32
REMARK   18  A    between atoms: C_30  and  N_33
REMARK   19  A    between atoms: C_32  and  C_34
REMARK   20  A    between atoms: C_34  and  C_35
REMARK   21  A    between atoms: C_35  and  N_36
REMARK                            x       y       z     vdW  Elec       q    Type
REMARK                         _______ _______ _______ _____ _____    ______ ____
ROOT
ATOM      1  N   UNL     1      -1.429   0.737   0.000  0.00  0.00    +0.000 N 
ATOM      2  C   UNL     1      -2.143   1.149   0.000  0.00  0.00    +0.000 C 
ATOM      3  O   UNL     1      -2.858   0.737   0.000  0.00  0.00    +0.000 OA
ATOM      4  H   UNL     1      -0.576   1.229   0.000  0.00  0.00    +0.000 HD
ENDROOT
BRANCH   1   5
ATOM      5  C   UNL     1      -1.429  -0.088   0.000  0.00  0.00    +0.000 C 
BRANCH   5  11
ATOM      6  N   UNL     1      -0.714  -1.326   0.000  0.00  0.00    +0.000 N 
ATOM      7  C   UNL     1      -1.382  -1.811   0.000  0.00  0.00    +0.000 C 
ATOM      8  C   UNL     1      -1.127  -2.595   0.000  0.00  0.00    +0.000 C 
ATOM      9  C   UNL     1      -0.302  -2.595   0.000  0.00  0.00    +0.000 C 
ATOM     10  C   UNL     1      -0.047  -1.811   0.000  0.00  0.00    +0.000 C 
ATOM     11  C   UNL     1      -0.714  -0.501   0.000  0.00  0.00    +0.000 C 
ATOM     12  O   UNL     1       0.000  -0.088   0.000  0.00  0.00    +0.000 OA
BRANCH  10  13
ATOM     13  C   UNL     1       0.738  -1.556   0.000  0.00  0.00    +0.000 C 
ATOM     14  O   UNL     1       0.909  -0.749   0.000  0.00  0.00    +0.000 OA
ATOM     15  N   UNL     1       1.351  -2.108   0.000  0.00  0.00    +0.000 N 
ATOM     16  H   UNL     1       1.146  -3.071   0.000  0.00  0.00    +0.000 HD
BRANCH  15  17
ATOM     17  C   UNL     1       2.135  -1.853   0.000  0.00  0.00    +0.000 C 
ATOM     18  C   UNL     1       2.307  -1.046   0.000  0.00  0.00    +0.000 C 
BRANCH  17  19
ATOM     19  C   UNL     1       2.748  -2.405   0.000  0.00  0.00    +0.000 C 
ATOM     20  N   UNL     1       3.533  -2.150   0.000  0.00  0.00    +0.000 N 
ATOM     21  O   UNL     1       2.577  -3.212   0.000  0.00  0.00    +0.000 OA
ATOM     22  H   UNL     1       4.265  -2.809   0.000  0.00  0.00    +0.000 HD
ATOM     23  H   UNL     1       3.738  -1.187   0.000  0.00  0.00    +0.000 HD
ENDBRANCH  17  19
ENDBRANCH  15  17
ENDBRANCH  10  13
ENDBRANCH   5  11
BRANCH   5  24
ATOM     24  C   UNL     1      -2.143  -0.501   0.000  0.00  0.00    +0.000 C 
ATOM     25  C   UNL     1      -2.858  -0.088   0.000  0.00  0.00    +0.000 C 
ATOM     26  C   UNL     1      -2.143  -1.326   0.000  0.00  0.00    +0.000 C 
ENDBRANCH   5  24
ENDBRANCH   1   5
BRANCH   2  27
ATOM     27  C   UNL     1      -2.143   1.974   0.000  0.00  0.00    +0.000 C 
BRANCH  27  28
ATOM     28  N   UNL     1      -1.429   2.387   0.000  0.00  0.00    +0.000 N 
ATOM     29  C   UNL     1      -0.714   1.974   0.000  0.00  0.00    +0.000 C 
ATOM     30  O   UNL     1      -0.714   1.149   0.000  0.00  0.00    +0.000 OA
ATOM     31  H   UNL     1      -1.429   3.371   0.000  0.00  0.00    +0.000 HD
BRANCH  29  32
ATOM     32  C   UNL     1       0.000   2.387   0.000  0.00  0.00    +0.000 C 
BRANCH  32  33
ATOM     33  N   UNL     1       0.000   3.212   0.000  0.00  0.00    +0.000 NA
ATOM     34  H   UNL     1       0.883   3.722   0.000  0.00  0.00    +0.000 HD
ATOM     35  H   UNL     1      -0.883   3.722   0.000  0.00  0.00    +0.000 HD
ENDBRANCH  32  33
BRANCH  32  36
ATOM     36  C   UNL     1       0.714   1.974   0.000  0.00  0.00    +0.000 C 
BRANCH  36  37
ATOM     37  C   UNL     1       1.429   2.387   0.000  0.00  0.00    +0.000 C 
BRANCH  37  38
ATOM     38  C   UNL     1       2.143   1.974   0.000  0.00  0.00    +0.000 C 
BRANCH  38  39
ATOM     39  N   UNL     1       2.858   2.387   0.000  0.00  0.00    +0.000 N 
ATOM     40  C   UNL     1       3.572   1.974   0.000  0.00  0.00    +0.000 C 
ATOM     41  N   UNL     1       4.287   2.387   0.000  0.00  0.00    +0.000 N 
ATOM     42  N   UNL     1       3.572   1.149   0.000  0.00  0.00    +0.000 NA
ATOM     43  H   UNL     1       2.858   3.371   0.000  0.00  0.00    +0.000 HD
ATOM     44  H   UNL     1       5.139   1.895   0.000  0.00  0.00    +0.000 HD
ATOM     45  H   UNL     1       4.287   3.371   0.000  0.00  0.00    +0.000 HD
ATOM     46  H   UNL     1       2.720   0.657   0.000  0.00  0.00    +0.000 HD
ENDBRANCH  38  39
ENDBRANCH  37  38
ENDBRANCH  36  37
ENDBRANCH  32  36
ENDBRANCH  29  32
ENDBRANCH  27  28
BRANCH  27  47
ATOM     47  C   UNL     1      -2.858   2.387   0.000  0.00  0.00    +0.000 C 
ATOM     48  C   UNL     1      -2.858   3.212   0.000  0.00  0.00    +0.000 C 
BRANCH  47  49
ATOM     49  C   UNL     1      -3.572   1.974   0.000  0.00  0.00    +0.000 C 
ATOM     50  C   UNL     1      -4.287   2.387   0.000  0.00  0.00    +0.000 C 
ENDBRANCH  47  49
ENDBRANCH  27  47
ENDBRANCH   2  27
TORSDOF 16
