REMARK  Name = 439378
REMARK  8 active torsions:
REMARK  status: ('A' for Active; 'I' for Inactive)
REMARK    1  A    between atoms: O_2  and  C_10
REMARK    2  A    between atoms: N_4  and  C_11
REMARK    3  A    between atoms: N_5  and  CA_7
REMARK    4  A    between atoms: C_6  and  CA_7
REMARK    5  A    between atoms: C_6  and  C_8
REMARK    6  A    between atoms: CA_7  and  C_10
REMARK    7  A    between atoms: C_8  and  C_9
REMARK    8  A    between atoms: C_11  and  C_12
REMARK                            x       y       z     vdW  Elec       q    Type
REMARK                         _______ _______ _______ _____ _____    ______ ____
ROOT
ATOM      1  C   UNL     1       0.765  -0.890  -0.177  0.00  0.00    +0.000 C 
ENDROOT
BRANCH   1   2
ATOM      2  CA  UNL     1       2.200  -0.547  -0.590  0.00  0.00    +0.000 C 
BRANCH   2   3
ATOM      3  N   UNL     1       3.074  -1.692  -0.320  0.00  0.00    +0.000 NA
ATOM      4  H1  UNL     1       2.755  -2.496  -0.860  0.00  0.00    +0.000 HD
ATOM      5  H2  UNL     1       2.995  -1.965   0.659  0.00  0.00    +0.000 HD
ENDBRANCH   2   3
BRANCH   2   7
ATOM      6  OXT UNL     1       3.289   0.519   1.312  0.00  0.00    +0.000 OA
ATOM      7  C   UNL     1       2.745   0.616   0.220  0.00  0.00    +0.000 C 
BRANCH   7   8
ATOM      8  O   UNL     1       2.538   1.811  -0.393  0.00  0.00    +0.000 OA
ATOM      9  H   UNL     1       2.880   2.559   0.141  0.00  0.00    +0.000 HD
ENDBRANCH   7   8
ENDBRANCH   2   7
ENDBRANCH   1   2
BRANCH   1  10
ATOM     10  C   UNL     1      -0.216   0.258  -0.427  0.00  0.00    +0.000 C 
BRANCH  10  13
ATOM     11  O   UNL     1      -1.968  -1.220   0.355  0.00  0.00    +0.000 OA
ATOM     12  N   UNL     1      -2.520   0.935  -0.314  0.00  0.00    +0.000 N 
ATOM     13  C   UNL     1      -1.647  -0.118  -0.082  0.00  0.00    +0.000 C 
ATOM     14  H   UNL     1      -2.159   1.812  -0.678  0.00  0.00    +0.000 HD
BRANCH  12  15
ATOM     15  C   UNL     1      -3.939   0.845  -0.061  0.00  0.00    +0.000 C 
ATOM     16  C   UNL     1      -4.322  -0.518   0.477  0.00  0.00    +0.000 C 
ENDBRANCH  12  15
ENDBRANCH  10  13
ENDBRANCH   1  10
TORSDOF 7
