REMARK  Name = 
REMARK  8 active torsions:
REMARK  status: ('A' for Active; 'I' for Inactive)
REMARK    1  A    between atoms: C_1  and  S_2
REMARK    2  A    between atoms: S_2  and  C_3
REMARK    3  A    between atoms: S_2  and  C_4
REMARK    4  A    between atoms: C_4  and  C_5
REMARK    5  A    between atoms: C_5  and  CA_6
REMARK    6  A    between atoms: CA_6  and  C_7
REMARK    7  A    between atoms: CA_6  and  N_10
REMARK    8  A    between atoms: C_7  and  OXT_9
REMARK                            x       y       z     vdW  Elec       q    Type
REMARK                         _______ _______ _______ _____ _____    ______ ____
ROOT
ATOM      1  CA  UNL     1       0.643   0.289   0.000  0.00  0.00    +0.000 C 
ENDROOT
BRANCH   1   2
ATOM      2  N   UNL     1       0.643   1.114   0.000  0.00  0.00    +0.000 NA
ATOM      3  H1  UNL     1       1.526   1.624   0.000  0.00  0.00    +0.000 HD
ATOM      4  H2  UNL     1      -0.240   1.624   0.000  0.00  0.00    +0.000 HD
ENDBRANCH   1   2
BRANCH   1   5
ATOM      5  C   UNL     1       1.357  -0.124   0.000  0.00  0.00    +0.000 C 
ATOM      6  O   UNL     1       2.072   0.289   0.000  0.00  0.00    +0.000 OA
BRANCH   5   7
ATOM      7  OXT UNL     1       1.357  -0.949   0.000  0.00  0.00    +0.000 OA
ATOM      8  HXT UNL     1       0.546  -1.417   0.000  0.00  0.00    +0.000 HD
ENDBRANCH   5   7
ENDBRANCH   1   5
BRANCH   1   9
ATOM      9  C   UNL     1      -0.071  -0.124   0.000  0.00  0.00    +0.000 C 
BRANCH   9  10
ATOM     10  C   UNL     1      -0.786   0.289   0.000  0.00  0.00    +0.000 C 
BRANCH  10  12
ATOM     11  C   UNL     1      -2.215   0.289   0.000  0.00  0.00    +0.000 C 
ATOM     12  S   UNL     1      -1.500  -0.124   0.000  0.00  0.00    +0.000 S 
ATOM     13  C   UNL     1      -1.500  -0.949   0.000  0.00  0.00    +0.000 C 
ENDBRANCH  10  12
ENDBRANCH   9  10
ENDBRANCH   1   9
TORSDOF 6
REMARK  Name = 
REMARK  8 active torsions:
REMARK  status: ('A' for Active; 'I' for Inactive)
REMARK    1  A    between atoms: C_1  and  S_2
REMARK    2  A    between atoms: S_2  and  C_3
REMARK    3  A    between atoms: S_2  and  C_4
REMARK    4  A    between atoms: C_4  and  C_5
REMARK    5  A    between atoms: C_5  and  CA_6
REMARK    6  A    between atoms: CA_6  and  C_7
REMARK    7  A    between atoms: CA_6  and  N_10
REMARK    8  A    between atoms: C_7  and  OXT_9
REMARK                            x       y       z     vdW  Elec       q    Type
REMARK                         _______ _______ _______ _____ _____    ______ ____
ROOT
ATOM      1 CL   UNL     1       4.429   0.000   0.000  0.00  0.00    +0.000 Cl
ENDROOT
TORSDOF 0
