REMARK  Name = 71080
REMARK  4 active torsions:
REMARK  status: ('A' for Active; 'I' for Inactive)
REMARK    1  A    between atoms: O_1  and  C_6
REMARK    2  A    between atoms: N_3  and  CA_4
REMARK    3  A    between atoms: CA_4  and  CB_5
REMARK    4  A    between atoms: CA_4  and  C_6
REMARK                            x       y       z     vdW  Elec       q    Type
REMARK                         _______ _______ _______ _____ _____    ______ ____
ROOT
ATOM      1  CA  ALA A   1      -0.709  -0.112  -0.395  0.00  0.00    +0.000 C 
ATOM      2  CB  ALA A   1      -1.329  -1.204   0.466  0.00  0.00    +0.000 C 
ENDROOT
BRANCH   1   3
ATOM      3  N   ALA A   1      -1.413   1.150  -0.173  0.00  0.00    +0.000 NA
ATOM      4  H1  ALA A   1      -0.975   1.892  -0.718  0.00  0.00    +0.000 HD
ATOM      5  H2  ALA A   1      -1.342   1.425   0.805  0.00  0.00    +0.000 HD
ENDBRANCH   1   3
BRANCH   1   7
ATOM      6  OXT ALA A   1       1.250   1.118   0.401  0.00  0.00    +0.000 OA
ATOM      7  C   ALA A   1       0.748   0.093  -0.038  0.00  0.00    +0.000 C 
BRANCH   7   8
ATOM      8  O   ALA A   1       1.454  -1.046  -0.260  0.00  0.00    +0.000 OA
ATOM      9  H   ALA A   1       2.401  -0.940  -0.029  0.00  0.00    +0.000 HD
ENDBRANCH   7   8
ENDBRANCH   1   7
TORSDOF 3
