REMARK  Name = 439202
REMARK  7 active torsions:
REMARK  status: ('A' for Active; 'I' for Inactive)
REMARK    1  A    between atoms: O_1  and  N_5
REMARK    2  A    between atoms: O_1  and  C_10
REMARK    3  A    between atoms: O_2  and  C_11
REMARK    4  A    between atoms: N_4  and  CA_9
REMARK    5  A    between atoms: C_8  and  CA_9
REMARK    6  A    between atoms: C_8  and  C_10
REMARK    7  A    between atoms: CA_9  and  C_11
REMARK                            x       y       z     vdW  Elec       q    Type
REMARK                         _______ _______ _______ _____ _____    ______ ____
ROOT
ATOM      1  C   UNL     1      -0.327   0.542   0.318  0.00  0.00    +0.000 C 
ENDROOT
BRANCH   1   2
ATOM      2  O   UNL     1      -1.480  -0.206  -0.040  0.00  0.00    +0.000 OA
BRANCH   2   3
ATOM      3  N   UNL     1      -2.611   0.568   0.259  0.00  0.00    +0.000 NA
ATOM      4  N   UNL     1      -4.941   0.467   0.144  0.00  0.00    +0.000 N 
ATOM      5  N   UNL     1      -3.765  -1.346  -0.602  0.00  0.00    +0.000 N 
ATOM      6  C   UNL     1      -3.699  -0.084  -0.056  0.00  0.00    +0.000 C 
ATOM      7  H   UNL     1      -5.044   1.395   0.541  0.00  0.00    +0.000 HD
ATOM      8  H   UNL     1      -5.788  -0.034  -0.098  0.00  0.00    +0.000 HD
ATOM      9  H   UNL     1      -4.654  -1.783  -0.817  0.00  0.00    +0.000 HD
ATOM     10  H   UNL     1      -2.924  -1.874  -0.804  0.00  0.00    +0.000 HD
ENDBRANCH   2   3
ENDBRANCH   1   2
BRANCH   1  11
ATOM     11  C   UNL     1       0.950  -0.240   0.020  0.00  0.00    +0.000 C 
BRANCH  11  12
ATOM     12  CA  UNL     1       2.253   0.476   0.406  0.00  0.00    +0.000 C 
BRANCH  12  13
ATOM     13  N   UNL     1       2.387   1.777  -0.249  0.00  0.00    +0.000 NA
ATOM     14  H1  UNL     1       2.372   1.662  -1.262  0.00  0.00    +0.000 HD
ATOM     15  H2  UNL     1       3.286   2.195  -0.014  0.00  0.00    +0.000 HD
ENDBRANCH  12  13
BRANCH  12  17
ATOM     16  OXT UNL     1       4.309  -0.026  -0.815  0.00  0.00    +0.000 OA
ATOM     17  C   UNL     1       3.449  -0.364  -0.012  0.00  0.00    +0.000 C 
BRANCH  17  18
ATOM     18  O   UNL     1       3.474  -1.564   0.627  0.00  0.00    +0.000 OA
ATOM     19  H   UNL     1       4.249  -2.103   0.361  0.00  0.00    +0.000 HD
ENDBRANCH  17  18
ENDBRANCH  12  17
ENDBRANCH  11  12
ENDBRANCH   1  11
TORSDOF 7
