REMARK  Name = 131704183
REMARK  15 active torsions:
REMARK  status: ('A' for Active; 'I' for Inactive)
REMARK    1  A    between atoms: P_1  and  O_5
REMARK    2  A    between atoms: P_1  and  O_6
REMARK    3  A    between atoms: P_1  and  C_19
REMARK    4  A    between atoms: O_2  and  C_18
REMARK    5  A    between atoms: N_9  and  C_15
REMARK    6  A    between atoms: N_10  and  C_19
REMARK    7  A    between atoms: N_11  and  CA_22
REMARK    8  A    between atoms: C_12  and  C_13
REMARK    9  A    between atoms: C_12  and  C_14
REMARK   10  A    between atoms: C_13  and  C_15
REMARK   11  A    between atoms: C_14  and  C_16
REMARK   12  A    between atoms: C_15  and  C_18
REMARK   13  A    between atoms: C_16  and  C_17
REMARK   14  A    between atoms: C_19  and  C_21
REMARK   15  A    between atoms: C_20  and  CA_22
REMARK                            x       y       z     vdW  Elec       q    Type
REMARK                         _______ _______ _______ _____ _____    ______ ____
ROOT
ATOM      1  C   UNK A   2       0.559  -0.955  -0.338  0.00  0.00    +0.000 C 
ENDROOT
BRANCH   1   2
ATOM      2  C   UNK A   2       1.428  -0.013  -1.183  0.00  0.00    +0.000 C 
BRANCH   2   3
ATOM      3  C   UNK A   2       2.339   0.910  -0.365  0.00  0.00    +0.000 C 
BRANCH   3   5
ATOM      4  O   GLY A   1       4.954   0.247  -1.411  0.00  0.00    +0.000 OA
ATOM      5  N   UNK A   2       3.387   0.183   0.303  0.00  0.00    +0.000 N 
ATOM      6  C   GLY A   1       4.620  -0.092  -0.278  0.00  0.00    +0.000 C 
ATOM      7  H   UNK A   2       3.195  -0.168   1.237  0.00  0.00    +0.000 HD
BRANCH   6   8
ATOM      8  CA  GLY A   1       5.515  -0.898   0.641  0.00  0.00    +0.000 C 
BRANCH   8   9
ATOM      9  N   GLY A   1       6.902  -0.563   0.354  0.00  0.00    +0.000 NA
ATOM     10  H1  GLY A   1       7.132  -0.843  -0.599  0.00  0.00    +0.000 HD
ATOM     11  H2  GLY A   1       7.513  -1.109   0.961  0.00  0.00    +0.000 HD
ENDBRANCH   8   9
ENDBRANCH   6   8
ENDBRANCH   3   5
BRANCH   3  13
ATOM     12  O   UNK A   2       0.670   2.556   0.251  0.00  0.00    +0.000 OA
ATOM     13  C   UNK A   2       1.546   1.775   0.600  0.00  0.00    +0.000 C 
BRANCH  13  14
ATOM     14  O   UNK A   2       1.909   1.604   1.894  0.00  0.00    +0.000 OA
ATOM     15  H   UNK A   2       1.386   2.173   2.499  0.00  0.00    +0.000 HD
ENDBRANCH  13  14
ENDBRANCH   3  13
ENDBRANCH   2   3
ENDBRANCH   1   2
BRANCH   1  16
ATOM     16  C   UNK A   2      -0.357  -1.804  -1.225  0.00  0.00    +0.000 C 
BRANCH  16  17
ATOM     17  C   UNK A   2      -1.269  -2.733  -0.418  0.00  0.00    +0.000 C 
BRANCH  17  20
ATOM     18  O   UNK A   2      -2.211  -2.248   1.716  0.00  0.00    +0.000 OA
ATOM     19  N   UNK A   2      -2.976  -1.119  -0.162  0.00  0.00    +0.000 NA
ATOM     20  C   UNK A   2      -2.247  -1.964   0.498  0.00  0.00    +0.000 C 
BRANCH  19  21
ATOM     21  C   UNK A   2      -3.954  -0.290   0.540  0.00  0.00    +0.000 C 
ATOM     22  C   UNK A   2      -5.309  -0.977   0.512  0.00  0.00    +0.000 C 
BRANCH  21  23
ATOM     23  P   UNK A   2      -3.917   1.236  -0.404  0.00  0.00    +0.000 P 
ATOM     24  O   UNK A   2      -4.232   1.089  -1.863  0.00  0.00    +0.000 OA
BRANCH  23  25
ATOM     25  O   UNK A   2      -2.452   1.839  -0.079  0.00  0.00    +0.000 OA
ATOM     26  H   UNK A   2      -2.174   2.672  -0.516  0.00  0.00    +0.000 HD
ENDBRANCH  23  25
BRANCH  23  27
ATOM     27  O   UNK A   2      -4.905   2.217   0.418  0.00  0.00    +0.000 OA
ATOM     28  H   UNK A   2      -5.073   3.120   0.072  0.00  0.00    +0.000 HD
ENDBRANCH  23  27
ENDBRANCH  21  23
ENDBRANCH  19  21
ENDBRANCH  17  20
ENDBRANCH  16  17
ENDBRANCH   1  16
TORSDOF 14
