REMARK  Name = 9898908
REMARK  8 active torsions:
REMARK  status: ('A' for Active; 'I' for Inactive)
REMARK    1  A    between atoms: O_1  and  C_10
REMARK    2  A    between atoms: O_2  and  C_11
REMARK    3  A    between atoms: N_5  and  C_7
REMARK    4  A    between atoms: C_6  and  C_7
REMARK    5  A    between atoms: C_6  and  C_8
REMARK    6  A    between atoms: C_6  and  C_9
REMARK    7  A    between atoms: C_7  and  C_10
REMARK    8  A    between atoms: C_8  and  C_11
REMARK                            x       y       z     vdW  Elec       q    Type
REMARK                         _______ _______ _______ _____ _____    ______ ____
ROOT
ATOM      1  C   UNK     1       0.853  -0.202  -0.732  0.00  0.00    +0.000 C 
ENDROOT
BRANCH   1   2
ATOM      2  N   UNK     1       1.978  -0.861  -1.403  0.00  0.00    +0.000 NA
ATOM      3  H   UNK     1       2.390  -0.225  -2.085  0.00  0.00    +0.000 HD
ATOM      4  H   UNK     1       1.635  -1.661  -1.934  0.00  0.00    +0.000 HD
ENDBRANCH   1   2
BRANCH   1   6
ATOM      5  O   UNK     1       2.526   1.011   0.568  0.00  0.00    +0.000 OA
ATOM      6  C   UNK     1       1.431   0.988   0.020  0.00  0.00    +0.000 C 
BRANCH   6   7
ATOM      7  O   UNK     1       0.584   2.051   0.033  0.00  0.00    +0.000 OA
ATOM      8  H   UNK     1       0.961   2.811   0.526  0.00  0.00    +0.000 HD
ENDBRANCH   6   7
ENDBRANCH   1   6
BRANCH   1   9
ATOM      9  C   UNK     1       0.095  -1.198   0.184  0.00  0.00    +0.000 C 
ATOM     10  C   UNK     1       1.000  -1.850   1.240  0.00  0.00    +0.000 C 
BRANCH   9  11
ATOM     11  C   UNK     1      -1.124  -0.567   0.887  0.00  0.00    +0.000 C 
BRANCH  11  13
ATOM     12  O   UNK     1      -2.373  -0.418  -1.200  0.00  0.00    +0.000 OA
ATOM     13  C   UNK     1      -2.144   0.004  -0.074  0.00  0.00    +0.000 C 
BRANCH  13  14
ATOM     14  O   UNK     1      -2.825   1.042   0.478  0.00  0.00    +0.000 OA
ATOM     15  H   UNK     1      -3.499   1.405  -0.136  0.00  0.00    +0.000 HD
ENDBRANCH  13  14
ENDBRANCH  11  13
ENDBRANCH   9  11
ENDBRANCH   1   9
TORSDOF 7
