REMARK  Name = 656911
REMARK  11 active torsions:
REMARK  status: ('A' for Active; 'I' for Inactive)
REMARK    1  A    between atoms: N_3  and  C_12
REMARK    2  A    between atoms: N_3  and  C_15
REMARK    3  A    between atoms: N_4  and  C_10
REMARK    4  A    between atoms: N_5  and  C_14
REMARK    5  A    between atoms: N_6  and  C_16
REMARK    6  A    between atoms: N_7  and  N_9
REMARK    7  A    between atoms: C_10  and  C_11
REMARK    8  A    between atoms: C_10  and  C_12
REMARK    9  A    between atoms: C_11  and  C_13
REMARK   10  A    between atoms: C_13  and  C_14
REMARK   11  A    between atoms: C_15  and  C_16
REMARK                            x       y       z     vdW  Elec       q    Type
REMARK                         _______ _______ _______ _____ _____    ______ ____
ROOT
ATOM      1  C   UNL     1       0.637   1.687  -0.135  0.00  0.00    +0.000 C 
ENDROOT
BRANCH   1   2
ATOM      2  C   UNL     1       1.975   2.053   0.542  0.00  0.00    +0.000 C 
BRANCH   2   3
ATOM      3  N   UNL     1       2.282   3.474   0.346  0.00  0.00    +0.000 NA
ATOM      4  H   UNL     1       3.186   3.690   0.764  0.00  0.00    +0.000 HD
ATOM      5  H   UNL     1       1.603   4.047   0.844  0.00  0.00    +0.000 HD
ENDBRANCH   2   3
BRANCH   2   6
ATOM      6  C   UNL     1       3.150   1.233  -0.020  0.00  0.00    +0.000 C 
BRANCH   6   7
ATOM      7  N   UNL     1       2.963  -0.200   0.183  0.00  0.00    +0.000 NA
ATOM      8  H   UNL     1       2.836  -0.393   1.176  0.00  0.00    +0.000 HD
BRANCH   7   9
ATOM      9  C   UNL     1       4.103  -0.948  -0.324  0.00  0.00    +0.000 C 
BRANCH   9  10
ATOM     10  C   UNL     1       3.889  -2.444  -0.110  0.00  0.00    +0.000 C 
BRANCH  10  11
ATOM     11  N   UNL     1       5.024  -3.195  -0.635  0.00  0.00    +0.000 NA
ATOM     12  H   UNL     1       4.846  -4.193  -0.531  0.00  0.00    +0.000 HD
ATOM     13  H   UNL     1       5.116  -3.024  -1.635  0.00  0.00    +0.000 HD
ENDBRANCH  10  11
ENDBRANCH   9  10
ENDBRANCH   7   9
ENDBRANCH   6   7
ENDBRANCH   2   6
ENDBRANCH   1   2
BRANCH   1  14
ATOM     14  C   UNL     1      -0.557   2.499   0.388  0.00  0.00    +0.000 C 
BRANCH  14  15
ATOM     15  C   UNL     1      -1.870   2.093  -0.275  0.00  0.00    +0.000 C 
BRANCH  15  16
ATOM     16  N   UNL     1      -2.159   0.687   0.014  0.00  0.00    +0.000 NA
ATOM     17  N   UNL     1      -3.691  -1.124  -0.255  0.00  0.00    +0.000 N 
ATOM     18  N   UNL     1      -4.212   0.883  -1.183  0.00  0.00    +0.000 N 
ATOM     19  C   UNL     1      -3.268   0.194  -0.442  0.00  0.00    +0.000 C 
ATOM     20  H   UNL     1      -4.586  -1.370  -0.670  0.00  0.00    +0.000 HD
ATOM     21  H   UNL     1      -5.059   0.429  -1.507  0.00  0.00    +0.000 HD
ATOM     22  H   UNL     1      -4.096   1.858  -1.435  0.00  0.00    +0.000 HD
BRANCH  17  25
ATOM     23  O   UNL     1      -1.897  -1.633   0.897  0.00  0.00    +0.000 OA
ATOM     24  O   UNL     1      -3.402  -3.204   0.566  0.00  0.00    +0.000 OA
ATOM     25  N   UNL     1      -2.965  -2.056   0.443  0.00  0.00    +0.000 N 
ENDBRANCH  17  25
ENDBRANCH  15  16
ENDBRANCH  14  15
ENDBRANCH   1  14
TORSDOF 11
