REMARK  Name = 161166
REMARK  7 active torsions:
REMARK  status: ('A' for Active; 'I' for Inactive)
REMARK    1  A    between atoms: O_2  and  C_12
REMARK    2  A    between atoms: N_4  and  CA_7
REMARK    3  A    between atoms: N_5  and  C_10
REMARK    4  A    between atoms: C_6  and  CA_7
REMARK    5  A    between atoms: C_6  and  C_8
REMARK    6  A    between atoms: CA_7  and  C_12
REMARK    7  A    between atoms: C_8  and  C_9
REMARK                            x       y       z     vdW  Elec       q    Type
REMARK                         _______ _______ _______ _____ _____    ______ ____
ROOT
ATOM      1  O   UNL     1      -0.506  -0.892  -1.449  0.00  0.00    +0.000 OA
ATOM      2  C   UNL     1      -0.166   0.081  -0.776  0.00  0.00    +0.000 C 
ENDROOT
BRANCH   2   3
ATOM      3  C   UNL     1       1.242   0.183  -0.292  0.00  0.00    +0.000 A 
ATOM      4  C   UNL     1       1.969  -0.958  -0.036  0.00  0.00    +0.000 A 
ATOM      5  C   UNL     1       1.763   1.448  -0.120  0.00  0.00    +0.000 A 
ATOM      6  C   UNL     1       3.282  -0.830   0.416  0.00  0.00    +0.000 A 
ATOM      7  C   UNL     1       3.076   1.576   0.332  0.00  0.00    +0.000 A 
ATOM      8  C   UNL     1       3.836   0.437   0.600  0.00  0.00    +0.000 A 
BRANCH   4   9
ATOM      9  N   UNL     1       1.426  -2.250  -0.215  0.00  0.00    +0.000 N 
ATOM     10  H   UNL     1       1.993  -3.063  -0.011  0.00  0.00    +0.000 HD
ATOM     11  H   UNL     1       0.470  -2.375  -0.515  0.00  0.00    +0.000 HD
ENDBRANCH   4   9
ENDBRANCH   2   3
BRANCH   2  12
ATOM     12  C   UNL     1      -1.173   1.166  -0.435  0.00  0.00    +0.000 C 
BRANCH  12  13
ATOM     13  CA  UNL     1      -2.608   0.637  -0.442  0.00  0.00    +0.000 C 
BRANCH  13  14
ATOM     14  N   UNL     1      -3.526   1.730  -0.114  0.00  0.00    +0.000 NA
ATOM     15  H1  UNL     1      -3.312   2.105   0.809  0.00  0.00    +0.000 HD
ATOM     16  H2  UNL     1      -4.482   1.379  -0.073  0.00  0.00    +0.000 HD
ENDBRANCH  13  14
BRANCH  13  18
ATOM     17  OXT UNL     1      -2.546  -0.302   1.812  0.00  0.00    +0.000 OA
ATOM     18  C   UNL     1      -2.788  -0.437   0.620  0.00  0.00    +0.000 C 
BRANCH  18  19
ATOM     19  O   UNL     1      -3.280  -1.591   0.098  0.00  0.00    +0.000 OA
ATOM     20  H   UNL     1      -3.404  -2.280   0.786  0.00  0.00    +0.000 HD
ENDBRANCH  18  19
ENDBRANCH  13  18
ENDBRANCH  12  13
ENDBRANCH   2  12
TORSDOF 7
