REMARK  Name = 
REMARK  5 active torsions:
REMARK  status: ('A' for Active; 'I' for Inactive)
REMARK    1  A    between atoms: N_1  and  CA_2
REMARK    2  A    between atoms: CA_2  and  C_3
REMARK    3  A    between atoms: CA_2  and  C_5
REMARK    4  A    between atoms: C_3  and  SE_4
REMARK    5  A    between atoms: C_5  and  O_6
REMARK                            x       y       z     vdW  Elec       q    Type
REMARK                         _______ _______ _______ _____ _____    ______ ____
ROOT
ATOM      1  CA  UNL     1       1.238   0.715   0.000  0.00  0.00    +0.000 C 
ENDROOT
BRANCH   1   2
ATOM      2  N   UNL     1       2.062   0.715   0.000  0.00  0.00    +0.000 NA
ATOM      3  H1  UNL     1       2.573  -0.169   0.000  0.00  0.00    +0.000 HD
ATOM      4  H2  UNL     1       2.572   1.598   0.000  0.00  0.00    +0.000 HD
ENDBRANCH   1   2
BRANCH   1   5
ATOM      5  C   UNL     1       0.825   0.000   0.000  0.00  0.00    +0.000 C 
ATOM      6  OXT UNL     1       0.000   0.000   0.000  0.00  0.00    +0.000 OA
BRANCH   5   7
ATOM      7  O   UNL     1       1.238  -0.715   0.000  0.00  0.00    +0.000 OA
ATOM      8  H   UNL     1       0.769  -1.526   0.000  0.00  0.00    +0.000 HD
ENDBRANCH   5   7
ENDBRANCH   1   5
BRANCH   1   9
ATOM      9  C   UNL     1       0.825   1.429   0.000  0.00  0.00    +0.000 C 
BRANCH   9  10
ATOM     10 SE   UNL     1       1.238   2.143   0.000  0.00  0.00    +0.000 Se
ATOM     11  H   UNL     1       2.747   2.143   0.000  0.00  0.00    +0.000 HD
ENDBRANCH   9  10
ENDBRANCH   1   9
TORSDOF 5
