REMARK  Name = 11869257
REMARK  6 active torsions:
REMARK  status: ('A' for Active; 'I' for Inactive)
REMARK    1  A    between atoms: S_1  and  C_8
REMARK    2  A    between atoms: S_1  and  C_10
REMARK    3  A    between atoms: N_5  and  CA_7
REMARK    4  A    between atoms: C_6  and  CA_7
REMARK    5  A    between atoms: C_6  and  C_8
REMARK    6  A    between atoms: CA_7  and  C_9
REMARK                            x       y       z     vdW  Elec       q    Type
REMARK                         _______ _______ _______ _____ _____    ______ ____
ROOT
ATOM      1  CA  UNL     1       1.420  -0.788  -0.363  0.00  0.00    +0.000 C 
ENDROOT
BRANCH   1   2
ATOM      2  N   UNL     1       1.439  -1.760   0.775  0.00  0.00    +0.000 N 
ATOM      3  H1  UNL     1       2.405  -2.012   1.025  0.00  0.00    +0.000 HD
ATOM      4  H2  UNL     1       0.949  -2.634   0.541  0.00  0.00    +0.000 HD
ATOM      5  H3  UNL     1       1.000  -1.371   1.620  0.00  0.00    +0.000 HD
ENDBRANCH   1   2
BRANCH   1   8
ATOM      6  O   UNL     1       3.127   0.441   0.749  0.00  0.00    +0.000 OA
ATOM      7  OXT UNL     1       1.806   1.516  -0.769  0.00  0.00    +0.000 OA
ATOM      8  C   UNL     1       2.188   0.518  -0.093  0.00  0.00    +0.000 C 
ENDBRANCH   1   8
BRANCH   1   9
ATOM      9  C   UNL     1      -0.042  -0.615  -0.796  0.00  0.00    +0.000 C 
BRANCH   9  10
ATOM     10  C   UNL     1      -0.898   0.173   0.194  0.00  0.00    +0.000 C 
BRANCH  10  11
ATOM     11  S   UNL     1      -2.615   0.291  -0.404  0.00  0.00    +0.000 S 
ATOM     12  O   UNL     1      -3.220  -1.071  -0.271  0.00  0.00    +0.000 OA
ATOM     13  C   UNL     1      -3.206   1.294   0.979  0.00  0.00    +0.000 C 
ENDBRANCH  10  11
ENDBRANCH   9  10
ENDBRANCH   1   9
TORSDOF 5
