REMARK  Name = 25246035
REMARK  6 active torsions:
REMARK  status: ('A' for Active; 'I' for Inactive)
REMARK    1  A    between atoms: O_1  and  N_5
REMARK    2  A    between atoms: O_1  and  C_8
REMARK    3  A    between atoms: N_4  and  CA_6
REMARK    4  A    between atoms: CA_6  and  C_7
REMARK    5  A    between atoms: CA_6  and  C_9
REMARK    6  A    between atoms: C_7  and  C_8
REMARK                            x       y       z     vdW  Elec       q    Type
REMARK                         _______ _______ _______ _____ _____    ______ ____
ROOT
ATOM      1  CA  UNL     1      -1.054  -0.680   0.528  0.00  0.00    +0.000 C 
ENDROOT
BRANCH   1   2
ATOM      2  N   UNL     1      -1.130  -1.866  -0.382  0.00  0.00    +0.000 N 
ATOM      3  H1  UNL     1      -0.665  -2.689   0.026  0.00  0.00    +0.000 HD
ATOM      4  H2  UNL     1      -0.693  -1.679  -1.294  0.00  0.00    +0.000 HD
ATOM      5  H3  UNL     1      -2.108  -2.128  -0.563  0.00  0.00    +0.000 HD
ENDBRANCH   1   2
BRANCH   1   8
ATOM      6  O   UNL     1      -2.659   0.363  -0.885  0.00  0.00    +0.000 OA
ATOM      7  OXT UNL     1      -1.338   1.672   0.436  0.00  0.00    +0.000 OA
ATOM      8  C   UNL     1      -1.760   0.572  -0.022  0.00  0.00    +0.000 C 
ENDBRANCH   1   8
BRANCH   1   9
ATOM      9  C   UNL     1       0.405  -0.474   0.946  0.00  0.00    +0.000 C 
BRANCH   9  10
ATOM     10  C   UNL     1       1.344  -0.075  -0.190  0.00  0.00    +0.000 C 
BRANCH  10  11
ATOM     11  O   UNL     1       2.660   0.054   0.335  0.00  0.00    +0.000 OA
BRANCH  11  12
ATOM     12  N   UNL     1       3.531   0.434  -0.766  0.00  0.00    +0.000 NA
ATOM     13  H   UNL     1       3.095   1.283  -1.120  0.00  0.00    +0.000 HD
ATOM     14  H   UNL     1       3.384  -0.314  -1.441  0.00  0.00    +0.000 HD
ENDBRANCH  11  12
ENDBRANCH  10  11
ENDBRANCH   9  10
ENDBRANCH   1   9
TORSDOF 6
