REMARK  Name = 36688842
REMARK  6 active torsions:
REMARK  status: ('A' for Active; 'I' for Inactive)
REMARK    1  A    between atoms: S_1  and  C_8
REMARK    2  A    between atoms: S_1  and  C_10
REMARK    3  A    between atoms: N_5  and  C_7
REMARK    4  A    between atoms: C_7  and  C_8
REMARK    5  A    between atoms: C_7  and  C_9
REMARK    6  A    between atoms: C_10  and  C_11
REMARK                            x       y       z     vdW  Elec       q    Type
REMARK                         _______ _______ _______ _____ _____    ______ ____
ROOT
ATOM      1  C   UNK     1       1.788   0.560   0.623  0.00  0.00    +0.000 C 
ENDROOT
BRANCH   1   2
ATOM      2  N   UNK     1       2.404   1.749  -0.050  0.00  0.00    +0.000 N 
ATOM      3  H   UNK     1       3.431   1.701  -0.017  0.00  0.00    +0.000 HD
ATOM      4  H   UNK     1       2.125   2.630   0.401  0.00  0.00    +0.000 HD
ATOM      5  H   UNK     1       2.130   1.803  -1.040  0.00  0.00    +0.000 HD
ENDBRANCH   1   2
BRANCH   1   8
ATOM      6  O   UNK     1       3.418  -0.779  -0.459  0.00  0.00    +0.000 OA
ATOM      7  O   UNK     1       1.495  -1.772   0.262  0.00  0.00    +0.000 OA
ATOM      8  C   UNK     1       2.284  -0.799   0.099  0.00  0.00    +0.000 C 
ENDBRANCH   1   8
BRANCH   1   9
ATOM      9  C   UNK     1       0.273   0.777   0.618  0.00  0.00    +0.000 C 
BRANCH   9  10
ATOM     10  S   UNK     1      -0.470   0.686  -1.045  0.00  0.00    +0.000 S 
BRANCH  10  11
ATOM     11  C   UNK     1      -2.176   1.057  -0.582  0.00  0.00    +0.000 C 
BRANCH  11  14
ATOM     12  O   UNK     1      -2.943  -1.220  -0.697  0.00  0.00    +0.000 OA
ATOM     13  N   UNK     1      -3.255  -0.064   1.265  0.00  0.00    +0.000 N 
ATOM     14  C   UNK     1      -2.818  -0.193  -0.034  0.00  0.00    +0.000 C 
ATOM     15  H   UNK     1      -3.143   0.792   1.798  0.00  0.00    +0.000 HD
ATOM     16  H   UNK     1      -3.707  -0.838   1.740  0.00  0.00    +0.000 HD
ENDBRANCH  11  14
ENDBRANCH  10  11
ENDBRANCH   9  10
ENDBRANCH   1   9
TORSDOF 6
