REMARK  Name = 6419721
REMARK  4 active torsions:
REMARK  status: ('A' for Active; 'I' for Inactive)
REMARK    1  A    between atoms: SG_1  and  CB_6
REMARK    2  A    between atoms: N_4  and  CA_5
REMARK    3  A    between atoms: CA_5  and  CB_6
REMARK    4  A    between atoms: CA_5  and  C_7
REMARK                            x       y       z     vdW  Elec       q    Type
REMARK                         _______ _______ _______ _____ _____    ______ ____
ROOT
ATOM      1  CA  CYS A   1       0.098  -0.571  -0.582  0.00  0.00    +0.000 C 
ENDROOT
BRANCH   1   2
ATOM      2  N   CYS A   1       0.268  -1.860   0.162  0.00  0.00    +0.000 N 
ATOM      3  H1  CYS A   1       0.538  -1.697   1.141  0.00  0.00    +0.000 HD
ATOM      4  H2  CYS A   1       0.988  -2.456  -0.267  0.00  0.00    +0.000 HD
ATOM      5  H3  CYS A   1      -0.609  -2.399   0.172  0.00  0.00    +0.000 HD
ENDBRANCH   1   2
BRANCH   1   8
ATOM      6  O   CYS A   1      -0.922   1.549  -0.284  0.00  0.00    +0.000 OA
ATOM      7  OXT CYS A   1      -1.962  -0.291   0.574  0.00  0.00    +0.000 OA
ATOM      8  C   CYS A   1      -1.046   0.313  -0.052  0.00  0.00    +0.000 C 
ENDBRANCH   1   8
BRANCH   1   9
ATOM      9  CB  CYS A   1       1.468   0.104  -0.700  0.00  0.00    +0.000 C 
BRANCH   9  10
ATOM     10  SG  CYS A   1       2.097   0.756   0.882  0.00  0.00    +0.000 S 
ATOM     11  HG  CYS A   1       2.306  -0.429   1.473  0.00  0.00    +0.000 HD
ENDBRANCH   9  10
ENDBRANCH   1   9
TORSDOF 4
