REMARK  Name = 5288719
REMARK  6 active torsions:
REMARK  status: ('A' for Active; 'I' for Inactive)
REMARK    1  A    between atoms: N_2  and  CA_5
REMARK    2  A    between atoms: C_3  and  C_4
REMARK    3  A    between atoms: C_3  and  CA_5
REMARK    4  A    between atoms: C_4  and  C_6
REMARK    5  A    between atoms: CA_5  and  C_8
REMARK    6  A    between atoms: C_6  and  C_7
REMARK                            x       y       z     vdW  Elec       q    Type
REMARK                         _______ _______ _______ _____ _____    ______ ____
ROOT
ATOM      1  CA  UNL     1      -1.132   0.189  -0.469  0.00  0.00    +0.000 C 
ENDROOT
BRANCH   1   2
ATOM      2  N   UNL     1      -1.320   1.481   0.180  0.00  0.00    +0.000 NA
ATOM      3  H1  UNL     1      -1.421   1.355   1.186  0.00  0.00    +0.000 HD
ATOM      4  H2  UNL     1      -2.181   1.915  -0.149  0.00  0.00    +0.000 HD
ENDBRANCH   1   2
BRANCH   1   6
ATOM      5  O   UNL     1      -3.340  -0.329   0.424  0.00  0.00    +0.000 OA
ATOM      6  C   UNL     1      -2.365  -0.662  -0.241  0.00  0.00    +0.000 C 
ENDBRANCH   1   6
BRANCH   1   7
ATOM      7  C   UNL     1       0.130  -0.532   0.023  0.00  0.00    +0.000 C 
BRANCH   7   8
ATOM      8  C   UNL     1       1.437   0.236  -0.218  0.00  0.00    +0.000 C 
BRANCH   8   9
ATOM      9  C   UNL     1       2.647  -0.575   0.251  0.00  0.00    +0.000 C 
ATOM     10  C   UNL     1       3.944   0.192   0.050  0.00  0.00    +0.000 C 
ENDBRANCH   8   9
ENDBRANCH   7   8
ENDBRANCH   1   7
TORSDOF 5
