REMARK  Name = 17753844
REMARK  9 active torsions:
REMARK  status: ('A' for Active; 'I' for Inactive)
REMARK    1  A    between atoms: O_1  and  C_10
REMARK    2  A    between atoms: O_1  and  C_12
REMARK    3  A    between atoms: O_2  and  C_11
REMARK    4  A    between atoms: O_5  and  C_13
REMARK    5  A    between atoms: N_7  and  C_8
REMARK    6  A    between atoms: C_8  and  C_9
REMARK    7  A    between atoms: C_8  and  C_11
REMARK    8  A    between atoms: C_9  and  C_10
REMARK    9  A    between atoms: C_12  and  C_13
REMARK                            x       y       z     vdW  Elec       q    Type
REMARK                         _______ _______ _______ _____ _____    ______ ____
ROOT
ATOM      1  C   UNK     1       1.096  -0.816   0.753  0.00  0.00    +0.000 C 
ENDROOT
BRANCH   1   3
ATOM      2  O   UNK     1       0.041  -1.296  -1.367  0.00  0.00    +0.000 OA
ATOM      3  C   UNK     1      -0.047  -0.839  -0.235  0.00  0.00    +0.000 C 
BRANCH   3   4
ATOM      4  O   UNK     1      -1.166  -0.306   0.333  0.00  0.00    +0.000 OA
BRANCH   4   5
ATOM      5  C   UNK     1      -2.332  -0.294  -0.496  0.00  0.00    +0.000 C 
BRANCH   5   7
ATOM      6  O   UNK     1      -3.452   0.722   1.405  0.00  0.00    +0.000 OA
ATOM      7  C   UNK     1      -3.483   0.317   0.253  0.00  0.00    +0.000 C 
BRANCH   7   8
ATOM      8  O   UNK     1      -4.586   0.360  -0.537  0.00  0.00    +0.000 OA
ATOM      9  H   UNK     1      -5.354   0.755  -0.072  0.00  0.00    +0.000 HD
ENDBRANCH   7   8
ENDBRANCH   5   7
ENDBRANCH   4   5
ENDBRANCH   3   4
ENDBRANCH   1   3
BRANCH   1  10
ATOM     10  C   UNK     1       2.432  -0.604   0.043  0.00  0.00    +0.000 C 
BRANCH  10  11
ATOM     11  N   UNK     1       3.521  -1.049   0.915  0.00  0.00    +0.000 NA
ATOM     12  H   UNK     1       4.410  -0.959   0.424  0.00  0.00    +0.000 HD
ATOM     13  H   UNK     1       3.412  -2.042   1.118  0.00  0.00    +0.000 HD
ENDBRANCH  10  11
BRANCH  10  15
ATOM     14  O   UNK     1       3.558   1.553   0.261  0.00  0.00    +0.000 OA
ATOM     15  C   UNK     1       2.662   0.874  -0.225  0.00  0.00    +0.000 C 
BRANCH  15  16
ATOM     16  O   UNK     1       1.756   1.379  -1.103  0.00  0.00    +0.000 OA
ATOM     17  H   UNK     1       1.911   2.331  -1.282  0.00  0.00    +0.000 HD
ENDBRANCH  15  16
ENDBRANCH  10  15
ENDBRANCH   1  10
TORSDOF 9
