REMARK  Name = 17754209
REMARK  6 active torsions:
REMARK  status: ('A' for Active; 'I' for Inactive)
REMARK    1  A    between atoms: O_1  and  C_10
REMARK    2  A    between atoms: O_2  and  C_12
REMARK    3  A    between atoms: N_5  and  CA_8
REMARK    4  A    between atoms: C_7  and  CA_8
REMARK    5  A    between atoms: C_7  and  C_9
REMARK    6  A    between atoms: CA_8  and  C_12
REMARK                            x       y       z     vdW  Elec       q    Type
REMARK                         _______ _______ _______ _____ _____    ______ ____
ROOT
ATOM      1  O   UNL     1      -3.961   0.196  -0.611  0.00  0.00    +0.000 OA
ATOM      2  N   UNL     1      -2.585   2.246   0.491  0.00  0.00    +0.000 NA
ATOM      3  C   UNL     1      -0.098  -0.411   0.564  0.00  0.00    +0.000 C 
ATOM      4  C   UNL     1      -0.883  -1.481  -0.035  0.00  0.00    +0.000 C 
ATOM      5  C   UNL     1      -0.614   0.815   0.752  0.00  0.00    +0.000 C 
ATOM      6  C   UNL     1      -2.006   1.101   0.349  0.00  0.00    +0.000 C 
ATOM      7  C   UNL     1      -2.153  -1.323  -0.434  0.00  0.00    +0.000 C 
ATOM      8  C   UNL     1      -2.807  -0.012  -0.269  0.00  0.00    +0.000 C 
ATOM      9  H   UNL     1      -1.944   2.922   0.921  0.00  0.00    +0.000 HD
ENDROOT
BRANCH   4  10
ATOM     10  O   UNL     1      -0.230  -2.691  -0.170  0.00  0.00    +0.000 OA
ATOM     11  H   UNL     1      -0.844  -3.325  -0.578  0.00  0.00    +0.000 HD
ENDBRANCH   4  10
BRANCH   3  12
ATOM     12  C   UNL     1       1.318  -0.712   0.972  0.00  0.00    +0.000 C 
BRANCH  12  13
ATOM     13  CA  UNL     1       2.300  -0.513  -0.185  0.00  0.00    +0.000 C 
BRANCH  13  14
ATOM     14  N   UNL     1       3.544  -1.232   0.088  0.00  0.00    +0.000 NA
ATOM     15  H1  UNL     1       4.162  -1.169  -0.720  0.00  0.00    +0.000 HD
ATOM     16  H2  UNL     1       3.346  -2.224   0.215  0.00  0.00    +0.000 HD
ENDBRANCH  13  14
BRANCH  13  18
ATOM     17  OXT UNL     1       3.615   1.512   0.166  0.00  0.00    +0.000 OA
ATOM     18  C   UNL     1       2.686   0.942  -0.391  0.00  0.00    +0.000 C 
BRANCH  18  19
ATOM     19  O   UNL     1       1.873   1.563  -1.287  0.00  0.00    +0.000 OA
ATOM     20  H   UNL     1       2.125   2.502  -1.418  0.00  0.00    +0.000 HD
ENDBRANCH  18  19
ENDBRANCH  13  18
ENDBRANCH  12  13
ENDBRANCH   3  12
TORSDOF 6
