REMARK  Name = 
REMARK  11 active torsions:
REMARK  status: ('A' for Active; 'I' for Inactive)
REMARK    1  A    between atoms: N_1  and  C_2
REMARK    2  A    between atoms: C_2  and  C_3
REMARK    3  A    between atoms: C_2  and  C_11
REMARK    4  A    between atoms: C_3  and  S_4
REMARK    5  A    between atoms: S_4  and  C_5
REMARK    6  A    between atoms: C_5  and  C_6
REMARK    7  A    between atoms: C_6  and  B_7
REMARK    8  A    between atoms: B_7  and  O_8
REMARK    9  A    between atoms: B_7  and  O_9
REMARK   10  A    between atoms: B_7  and  O_10
REMARK   11  A    between atoms: C_11  and  O_13
REMARK                            x       y       z     vdW  Elec       q    Type
REMARK                         _______ _______ _______ _____ _____    ______ ____
ROOT
ATOM      1  S   UNK     1       0.454   0.099  -0.285  0.00  0.00    +0.000 S 
ENDROOT
BRANCH   1   2
ATOM      2  C   UNK     1       1.757  -1.143  -0.503  0.00  0.00    +0.000 C 
BRANCH   2   3
ATOM      3  C   UNK     1       3.070  -0.252  -0.942  0.00  0.00    +0.000 C 
BRANCH   3   4
ATOM      4  N   UNK     1       4.048  -1.152  -0.095  0.00  0.00    +0.000 NA
ATOM      5  H   UNK     1       4.347  -1.951  -0.655  0.00  0.00    +0.000 HD
ATOM      6  H   UNK     1       3.567  -1.484   0.741  0.00  0.00    +0.000 HD
ENDBRANCH   3   4
BRANCH   3   7
ATOM      7  C   UNK     1       2.878   0.804   0.263  0.00  0.00    +0.000 C 
ATOM      8  O   UNK     1       2.361   1.877  -0.128  0.00  0.00    +0.000 OA
BRANCH   7   9
ATOM      9  O   UNK     1       2.601   0.316   1.509  0.00  0.00    +0.000 OA
ATOM     10  H   UNK     1       2.990  -0.487   1.795  0.00  0.00    +0.000 HD
ENDBRANCH   7   9
ENDBRANCH   3   7
ENDBRANCH   2   3
ENDBRANCH   1   2
BRANCH   1  11
ATOM     11  C   UNK     1      -0.862  -0.441   0.791  0.00  0.00    +0.000 C 
BRANCH  11  12
ATOM     12  C   UNK     1      -2.015  -0.997  -0.000  0.00  0.00    +0.000 C 
BRANCH  12  13
ATOM     13  B   UNK     1      -3.253  -0.012   0.084  0.00  0.00    +0.000 B 
BRANCH  13  14
ATOM     14  O   UNK     1      -4.444  -0.815   0.356  0.00  0.00    +0.000 OA
ATOM     15  H   UNK     1      -4.317  -1.315   1.177  0.00  0.00    +0.000 HD
ENDBRANCH  13  14
BRANCH  13  16
ATOM     16  O   UNK     1      -3.129   0.977   1.155  0.00  0.00    +0.000 OA
ATOM     17  H   UNK     1      -2.986   0.523   2.000  0.00  0.00    +0.000 HD
ENDBRANCH  13  16
BRANCH  13  18
ATOM     18  O   UNK     1      -3.467   0.739  -1.164  0.00  0.00    +0.000 OA
ATOM     19  H   UNK     1      -3.555   0.118  -1.904  0.00  0.00    +0.000 HD
ENDBRANCH  13  18
ENDBRANCH  12  13
ENDBRANCH  11  12
ENDBRANCH   1  11
TORSDOF 11
