REMARK  Name = 11412540
REMARK  8 active torsions:
REMARK  status: ('A' for Active; 'I' for Inactive)
REMARK    1  A    between atoms: O_1  and  C_10
REMARK    2  A    between atoms: O_2  and  C_11
REMARK    3  A    between atoms: N_5  and  C_7
REMARK    4  A    between atoms: C_6  and  C_7
REMARK    5  A    between atoms: C_6  and  C_8
REMARK    6  A    between atoms: C_6  and  C_9
REMARK    7  A    between atoms: C_7  and  C_10
REMARK    8  A    between atoms: C_8  and  C_11
REMARK                            x       y       z     vdW  Elec       q    Type
REMARK                         _______ _______ _______ _____ _____    ______ ____
ROOT
ATOM      1  C   UNK     1      -0.672   0.158   0.438  0.00  0.00    +0.000 C 
ENDROOT
BRANCH   1   2
ATOM      2  N   UNK     1      -0.710  -0.677   1.644  0.00  0.00    +0.000 NA
ATOM      3  H   UNK     1      -1.173  -0.167   2.397  0.00  0.00    +0.000 HD
ATOM      4  H   UNK     1       0.237  -0.852   1.974  0.00  0.00    +0.000 HD
ENDBRANCH   1   2
BRANCH   1   6
ATOM      5  O   UNK     1      -3.099   0.072   0.688  0.00  0.00    +0.000 OA
ATOM      6  C   UNK     1      -2.114   0.512   0.107  0.00  0.00    +0.000 C 
BRANCH   6   7
ATOM      7  O   UNK     1      -2.207   1.380  -0.933  0.00  0.00    +0.000 OA
ATOM      8  H   UNK     1      -3.139   1.598  -1.145  0.00  0.00    +0.000 HD
ENDBRANCH   6   7
ENDBRANCH   1   6
BRANCH   1   9
ATOM      9  C   UNK     1       0.063  -0.571  -0.716  0.00  0.00    +0.000 C 
ATOM     10  C   UNK     1      -0.639  -1.865  -1.156  0.00  0.00    +0.000 C 
BRANCH   9  11
ATOM     11  C   UNK     1       1.536  -0.885  -0.383  0.00  0.00    +0.000 C 
BRANCH  11  13
ATOM     12  O   UNK     1       2.152   1.469  -0.485  0.00  0.00    +0.000 OA
ATOM     13  C   UNK     1       2.353   0.344  -0.049  0.00  0.00    +0.000 C 
BRANCH  13  14
ATOM     14  O   UNK     1       3.337   0.063   0.844  0.00  0.00    +0.000 OA
ATOM     15  H   UNK     1       3.858   0.861   1.077  0.00  0.00    +0.000 HD
ENDBRANCH  13  14
ENDBRANCH  11  13
ENDBRANCH   9  11
ENDBRANCH   1   9
TORSDOF 7
