REMARK  Name = 5287706
REMARK  9 active torsions:
REMARK  status: ('A' for Active; 'I' for Inactive)
REMARK    1  A    between atoms: O_1  and  C_11
REMARK    2  A    between atoms: N_3  and  C_10
REMARK    3  A    between atoms: N_4  and  C_9
REMARK    4  A    between atoms: N_5  and  C_13
REMARK    5  A    between atoms: C_7  and  C_8
REMARK    6  A    between atoms: C_7  and  C_9
REMARK    7  A    between atoms: C_8  and  C_10
REMARK    8  A    between atoms: C_9  and  C_11
REMARK    9  A    between atoms: C_13  and  C_14
REMARK                            x       y       z     vdW  Elec       q    Type
REMARK                         _______ _______ _______ _____ _____    ______ ____
ROOT
ATOM      1  N   UNK     1       0.821   0.437  -0.394  0.00  0.00    +0.000 N 
ATOM      2  N   UNK     1       3.159  -0.124  -0.248  0.00  0.00    +0.000 N 
ATOM      3  N   UNK     1       2.447   2.173   0.108  0.00  0.00    +0.000 N 
ATOM      4  C   UNK     1       2.147   0.840  -0.175  0.00  0.00    +0.000 C 
ATOM      5  H   UNK     1       0.664  -0.544  -0.618  0.00  0.00    +0.000 HD
ATOM      6  H   UNK     1       2.880  -1.082  -0.455  0.00  0.00    +0.000 HD
ATOM      7  H   UNK     1       3.402   2.483   0.268  0.00  0.00    +0.000 HD
ATOM      8  H   UNK     1       1.723   2.884   0.164  0.00  0.00    +0.000 HD
ENDROOT
BRANCH   1   9
ATOM      9  C   UNK     1      -0.301   1.364  -0.341  0.00  0.00    +0.000 C 
BRANCH   9  10
ATOM     10  C   UNK     1      -1.633   0.666  -0.594  0.00  0.00    +0.000 C 
BRANCH  10  11
ATOM     11  C   UNK     1      -1.922  -0.419   0.454  0.00  0.00    +0.000 C 
BRANCH  11  12
ATOM     12  C   UNK     1      -3.278  -1.121   0.289  0.00  0.00    +0.000 C 
BRANCH  12  13
ATOM     13  N   UNK     1      -3.350  -1.859  -0.971  0.00  0.00    +0.000 NA
ATOM     14  H   UNK     1      -2.560  -2.500  -1.037  0.00  0.00    +0.000 HD
ATOM     15  H   UNK     1      -3.262  -1.222  -1.761  0.00  0.00    +0.000 HD
ENDBRANCH  12  13
BRANCH  12  17
ATOM     16  O   UNK     1      -5.237   0.052  -0.577  0.00  0.00    +0.000 OA
ATOM     17  C   UNK     1      -4.435  -0.138   0.328  0.00  0.00    +0.000 C 
BRANCH  17  18
ATOM     18  O   UNK     1      -4.492   0.531   1.510  0.00  0.00    +0.000 OA
ATOM     19  H   UNK     1      -5.240   1.166   1.534  0.00  0.00    +0.000 HD
ENDBRANCH  17  18
ENDBRANCH  12  17
ENDBRANCH  11  12
ENDBRANCH  10  11
ENDBRANCH   9  10
ENDBRANCH   1   9
BRANCH   2  20
ATOM     20  C   UNK     1       4.569   0.202  -0.035  0.00  0.00    +0.000 C 
BRANCH  20  21
ATOM     21  C   UNK     1       5.382  -1.043  -0.170  0.00  0.00    +0.000 C 
ATOM     22  C   UNK     1       6.123  -1.561   0.816  0.00  0.00    +0.000 C 
ENDBRANCH  20  21
ENDBRANCH   2  20
TORSDOF 9
