REMARK  Name = 1396
REMARK  5 active torsions:
REMARK  status: ('A' for Active; 'I' for Inactive)
REMARK    1  A    between atoms: S_2  and  N_10
REMARK    2  A    between atoms: S_2  and  C_18
REMARK    3  A    between atoms: N_8  and  C_12
REMARK    4  A    between atoms: C_11  and  C_13
REMARK    5  A    between atoms: C_15  and  C_23
REMARK                            x       y       z     vdW  Elec       q    Type
REMARK                         _______ _______ _______ _____ _____    ______ ____
ROOT
ATOM      1  N   UNL     1      -1.081  -0.606   0.001  0.00  0.00    +0.000 N 
ATOM      2  N   UNL     1      -1.948  -1.632   0.022  0.00  0.00    +0.000 NA
ATOM      3  C   UNL     1      -1.677   0.623  -0.007  0.00  0.00    +0.000 A 
ATOM      4  C   UNL     1      -3.030   0.380   0.011  0.00  0.00    +0.000 A 
ATOM      5  C   UNL     1      -3.137  -1.024   0.029  0.00  0.00    +0.000 A 
ENDROOT
BRANCH   3   7
ATOM      6 BR   UNL     1       1.336   5.952  -0.101  0.00  0.00    +0.000 Br
ATOM      7  C   UNL     1      -0.966   1.878  -0.029  0.00  0.00    +0.000 A 
ATOM      8  C   UNL     1      -0.610   2.499   1.168  0.00  0.00    +0.000 A 
ATOM      9  C   UNL     1      -0.637   2.472  -1.248  0.00  0.00    +0.000 A 
ATOM     10  C   UNL     1       0.077   3.713   1.147  0.00  0.00    +0.000 A 
ATOM     11  C   UNL     1       0.050   3.686  -1.269  0.00  0.00    +0.000 A 
ATOM     12  C   UNL     1       0.407   4.306  -0.072  0.00  0.00    +0.000 A 
ENDBRANCH   3   7
BRANCH   1  13
ATOM     13  C   UNL     1       0.291  -0.866  -0.012  0.00  0.00    +0.000 A 
ATOM     14  C   UNL     1       1.165   0.041   0.572  0.00  0.00    +0.000 A 
ATOM     15  C   UNL     1       0.761  -2.027  -0.609  0.00  0.00    +0.000 A 
ATOM     16  C   UNL     1       3.019  -1.383  -0.038  0.00  0.00    +0.000 A 
ATOM     17  C   UNL     1       2.535  -0.218   0.558  0.00  0.00    +0.000 A 
ATOM     18  C   UNL     1       2.132  -2.287  -0.622  0.00  0.00    +0.000 A 
BRANCH  16  19
ATOM     19  S   UNL     1       4.734  -1.708  -0.054  0.00  0.00    +0.000 S 
ATOM     20  O   UNL     1       5.022  -2.599  -1.169  0.00  0.00    +0.000 OA
ATOM     21  O   UNL     1       5.446  -0.443   0.065  0.00  0.00    +0.000 OA
BRANCH  19  22
ATOM     22  N   UNL     1       4.913  -2.577   1.406  0.00  0.00    +0.000 NA
ATOM     23  H   UNL     1       5.109  -3.584   1.341  0.00  0.00    +0.000 HD
ATOM     24  H   UNL     1       5.396  -2.109   2.183  0.00  0.00    +0.000 HD
ENDBRANCH  19  22
ENDBRANCH  16  19
ENDBRANCH   1  13
BRANCH   5  28
ATOM     25  F   UNL     1      -5.502  -1.068   0.058  0.00  0.00    +0.000 F 
ATOM     26  F   UNL     1      -4.490  -2.662  -1.020  0.00  0.00    +0.000 F 
ATOM     27  F   UNL     1      -4.440  -2.621   1.159  0.00  0.00    +0.000 F 
ATOM     28  C   UNL     1      -4.370  -1.829   0.053  0.00  0.00    +0.000 C 
ENDBRANCH   5  28
TORSDOF 5
