REMARK  Name = 104850
REMARK  5 active torsions:
REMARK  status: ('A' for Active; 'I' for Inactive)
REMARK    1  A    between atoms: N_5  and  N_6
REMARK    2  A    between atoms: N_7  and  C_20
REMARK    3  A    between atoms: C_14  and  C_15
REMARK    4  A    between atoms: C_16  and  C_19
REMARK    5  A    between atoms: C_17  and  C_18
REMARK                            x       y       z     vdW  Elec       q    Type
REMARK                         _______ _______ _______ _____ _____    ______ ____
ROOT
ATOM      1  N   UNL     1       0.544   0.263   0.101  0.00  0.00    +0.000 N 
ATOM      2  N   UNL     1      -0.794   0.382   0.103  0.00  0.00    +0.000 NA
ATOM      3  C   UNL     1      -1.178  -0.879   0.071  0.00  0.00    +0.000 A 
ATOM      4  C   UNL     1      -0.148  -1.808   0.047  0.00  0.00    +0.000 A 
ATOM      5  C   UNL     1       0.982  -1.029   0.067  0.00  0.00    +0.000 A 
ATOM      6  C   UNL     1      -0.232  -3.280   0.009  0.00  0.00    +0.000 C 
ENDROOT
BRANCH   1   9
ATOM      7 CL   UNL     1       1.303   1.436  -2.603  0.00  0.00    +0.000 Cl
ATOM      8 CL   UNL     1       3.887   5.114   0.350  0.00  0.00    +0.000 Cl
ATOM      9  C   UNL     1       1.336   1.412   0.130  0.00  0.00    +0.000 A 
ATOM     10  C   UNL     1       1.744   2.036  -1.042  0.00  0.00    +0.000 A 
ATOM     11  C   UNL     1       1.707   1.919   1.370  0.00  0.00    +0.000 A 
ATOM     12  C   UNL     1       2.534   3.183  -0.975  0.00  0.00    +0.000 A 
ATOM     13  C   UNL     1       2.498   3.066   1.438  0.00  0.00    +0.000 A 
ATOM     14  C   UNL     1       2.911   3.698   0.266  0.00  0.00    +0.000 A 
ENDBRANCH   1   9
BRANCH   5  16
ATOM     15 CL   UNL     1       6.720  -2.616   0.026  0.00  0.00    +0.000 Cl
ATOM     16  C   UNL     1       2.377  -1.414   0.057  0.00  0.00    +0.000 A 
ATOM     17  C   UNL     1       3.045  -1.567  -1.155  0.00  0.00    +0.000 A 
ATOM     18  C   UNL     1       3.045  -1.630   1.260  0.00  0.00    +0.000 A 
ATOM     19  C   UNL     1       4.389  -1.939  -1.165  0.00  0.00    +0.000 A 
ATOM     20  C   UNL     1       4.389  -2.002   1.250  0.00  0.00    +0.000 A 
ATOM     21  C   UNL     1       5.061  -2.157   0.038  0.00  0.00    +0.000 A 
ENDBRANCH   5  16
BRANCH   3  24
ATOM     22  O   UNL     1      -3.040  -2.323   0.008  0.00  0.00    +0.000 OA
ATOM     23  N   UNL     1      -3.442  -0.052   0.091  0.00  0.00    +0.000 N 
ATOM     24  C   UNL     1      -2.620  -1.167   0.062  0.00  0.00    +0.000 C 
ATOM     25  H   UNL     1      -3.077   0.895   0.125  0.00  0.00    +0.000 HD
BRANCH  23  26
ATOM     26  N   UNL     1      -4.812  -0.237   0.058  0.00  0.00    +0.000 NA
ATOM     27  C   UNL     1      -7.586   0.665   0.005  0.00  0.00    +0.000 C 
ATOM     28  C   UNL     1      -6.883   0.132  -1.238  0.00  0.00    +0.000 C 
ATOM     29  C   UNL     1      -6.939   0.105   1.268  0.00  0.00    +0.000 C 
ATOM     30  C   UNL     1      -5.372   0.357  -1.162  0.00  0.00    +0.000 C 
ATOM     31  C   UNL     1      -5.426   0.331   1.264  0.00  0.00    +0.000 C 
ENDBRANCH  23  26
ENDBRANCH   3  24
TORSDOF 4
