REMARK  Name = 5335
REMARK  5 active torsions:
REMARK  status: ('A' for Active; 'I' for Inactive)
REMARK    1  A    between atoms: S_1  and  N_5
REMARK    2  A    between atoms: S_1  and  C_9
REMARK    3  A    between atoms: N_4  and  C_10
REMARK    4  A    between atoms: N_5  and  C_8
REMARK    5  A    between atoms: N_7  and  C_19
REMARK                            x       y       z     vdW  Elec       q    Type
REMARK                         _______ _______ _______ _____ _____    ______ ____
ROOT
ATOM      1  N   UNL     1       0.724  -1.572  -0.844  0.00  0.00    +0.000 N 
ATOM      2  H   UNL     1       0.715  -2.141  -1.702  0.00  0.00    +0.000 HD
ENDROOT
BRANCH   1   5
ATOM      3  N   UNL     1       2.540   0.056  -0.178  0.00  0.00    +0.000 N 
ATOM      4  N   UNL     1       3.857   0.076   0.116  0.00  0.00    +0.000 NA
ATOM      5  C   UNL     1       2.078  -1.198  -0.483  0.00  0.00    +0.000 A 
ATOM      6  C   UNL     1       3.158  -2.041  -0.381  0.00  0.00    +0.000 A 
ATOM      7  C   UNL     1       4.225  -1.202  -0.009  0.00  0.00    +0.000 A 
BRANCH   3   8
ATOM      8  C   UNL     1       1.798   1.223  -0.154  0.00  0.00    +0.000 A 
ATOM      9  C   UNL     1       0.699   1.367  -1.001  0.00  0.00    +0.000 A 
ATOM     10  C   UNL     1       2.150   2.255   0.715  0.00  0.00    +0.000 A 
ATOM     11  C   UNL     1      -0.049   2.545  -0.977  0.00  0.00    +0.000 A 
ATOM     12  C   UNL     1       1.402   3.432   0.739  0.00  0.00    +0.000 A 
ATOM     13  C   UNL     1       0.302   3.577  -0.107  0.00  0.00    +0.000 A 
ENDBRANCH   3   8
ENDBRANCH   1   5
BRANCH   1  14
ATOM     14  S   UNL     1      -0.299  -2.185   0.384  0.00  0.00    +0.000 S 
ATOM     15  O   UNL     1      -0.704  -3.528   0.013  0.00  0.00    +0.000 OA
ATOM     16  O   UNL     1       0.279  -1.942   1.692  0.00  0.00    +0.000 OA
BRANCH  14  17
ATOM     17  C   UNL     1      -1.731  -1.156   0.227  0.00  0.00    +0.000 A 
ATOM     18  C   UNL     1      -2.752  -1.548  -0.621  0.00  0.00    +0.000 A 
ATOM     19  C   UNL     1      -1.799   0.019   0.953  0.00  0.00    +0.000 A 
ATOM     20  C   UNL     1      -3.879  -0.736  -0.746  0.00  0.00    +0.000 A 
ATOM     21  C   UNL     1      -2.927   0.830   0.828  0.00  0.00    +0.000 A 
ATOM     22  C   UNL     1      -3.967   0.453  -0.021  0.00  0.00    +0.000 A 
BRANCH  22  23
ATOM     23  N   UNL     1      -5.107   1.273  -0.146  0.00  0.00    +0.000 N 
ATOM     24  H   UNL     1      -5.169   2.137   0.377  0.00  0.00    +0.000 HD
ATOM     25  H   UNL     1      -5.861   1.002  -0.763  0.00  0.00    +0.000 HD
ENDBRANCH  22  23
ENDBRANCH  14  17
ENDBRANCH   1  14
TORSDOF 5
