REMARK  Name = 24812719
REMARK  4 active torsions:
REMARK  status: ('A' for Active; 'I' for Inactive)
REMARK    1  A    between atoms: N_5  and  C_13
REMARK    2  A    between atoms: C_9  and  C_10
REMARK    3  A    between atoms: C_11  and  C_19
REMARK    4  A    between atoms: C_24  and  C_28
REMARK                            x       y       z     vdW  Elec       q    Type
REMARK                         _______ _______ _______ _____ _____    ______ ____
ROOT
ATOM      1  O   UNL     1      -0.604   0.234   0.712  0.00  0.00    +0.000 OA
ATOM      2  N   UNL     1      -1.876  -1.577  -0.093  0.00  0.00    +0.000 N 
ATOM      3  C   UNL     1       0.621  -1.637  -0.028  0.00  0.00    +0.000 A 
ATOM      4  C   UNL     1       0.595  -2.915  -0.458  0.00  0.00    +0.000 A 
ATOM      5  C   UNL     1      -0.676  -0.893   0.219  0.00  0.00    +0.000 A 
ATOM      6  C   UNL     1      -1.824  -2.899  -0.521  0.00  0.00    +0.000 A 
ATOM      7  C   UNL     1      -0.676  -3.558  -0.696  0.00  0.00    +0.000 A 
ATOM      8  C   UNL     1       1.793  -3.782  -0.740  0.00  0.00    +0.000 C 
ENDROOT
BRANCH   3  12
ATOM      9  N   UNL     1       5.478   1.050   0.990  0.00  0.00    +0.000 NA
ATOM     10  N   UNL     1       5.556   1.839  -1.285  0.00  0.00    +0.000 NA
ATOM     11  N   UNL     1       7.247   2.396   0.238  0.00  0.00    +0.000 N 
ATOM     12  C   UNL     1       1.891  -0.933   0.231  0.00  0.00    +0.000 A 
ATOM     13  C   UNL     1       2.514  -0.215  -0.785  0.00  0.00    +0.000 A 
ATOM     14  C   UNL     1       2.473  -0.982   1.493  0.00  0.00    +0.000 A 
ATOM     15  C   UNL     1       3.723   0.455  -0.532  0.00  0.00    +0.000 A 
ATOM     16  C   UNL     1       4.321   0.413   0.738  0.00  0.00    +0.000 A 
ATOM     17  C   UNL     1       3.676  -0.313   1.736  0.00  0.00    +0.000 A 
ATOM     18  C   UNL     1       4.397   1.190  -1.504  0.00  0.00    +0.000 A 
ATOM     19  C   UNL     1       6.032   1.728  -0.035  0.00  0.00    +0.000 A 
ATOM     20  H   UNL     1       7.645   2.342   1.165  0.00  0.00    +0.000 HD
ATOM     21  H   UNL     1       7.702   2.919  -0.497  0.00  0.00    +0.000 HD
ENDBRANCH   3  12
BRANCH   2  22
ATOM     22  C   UNL     1      -3.153  -0.906   0.061  0.00  0.00    +0.000 A 
ATOM     23  C   UNL     1      -3.244   0.472  -0.128  0.00  0.00    +0.000 A 
ATOM     24  C   UNL     1      -4.289  -1.640   0.401  0.00  0.00    +0.000 A 
ATOM     25  C   UNL     1      -4.471   1.117   0.021  0.00  0.00    +0.000 A 
ATOM     26  C   UNL     1      -5.517  -0.995   0.550  0.00  0.00    +0.000 A 
ATOM     27  C   UNL     1      -5.608   0.384   0.361  0.00  0.00    +0.000 A 
BRANCH  25  31
ATOM     28  F   UNL     1      -5.829   3.087   0.001  0.00  0.00    +0.000 F 
ATOM     29  F   UNL     1      -3.778   3.313   0.669  0.00  0.00    +0.000 F 
ATOM     30  F   UNL     1      -4.201   2.976  -1.437  0.00  0.00    +0.000 F 
ATOM     31  C   UNL     1      -4.569   2.592  -0.180  0.00  0.00    +0.000 C 
ENDBRANCH  25  31
ENDBRANCH   2  22
TORSDOF 3
