REMARK  Name = 59472121
REMARK  10 active torsions:
REMARK  status: ('A' for Active; 'I' for Inactive)
REMARK    1  A    between atoms: S_1  and  C_10
REMARK    2  A    between atoms: S_1  and  C_11
REMARK    3  A    between atoms: N_8  and  C_27
REMARK    4  A    between atoms: N_8  and  C_33
REMARK    5  A    between atoms: C_10  and  C_12
REMARK    6  A    between atoms: C_10  and  C_13
REMARK    7  A    between atoms: C_16  and  C_19
REMARK    8  A    between atoms: C_20  and  C_22
REMARK    9  A    between atoms: C_21  and  C_23
REMARK   10  A    between atoms: C_24  and  C_27
REMARK                            x       y       z     vdW  Elec       q    Type
REMARK                         _______ _______ _______ _____ _____    ______ ____
ROOT
ATOM      1  N   UNL     1       0.936   1.006  -0.134  0.00  0.00    +0.000 NA
ATOM      2  N   UNL     1       1.024   3.773   0.316  0.00  0.00    +0.000 NA
ATOM      3  N   UNL     1      -1.349   3.831   0.318  0.00  0.00    +0.000 N 
ATOM      4  C   UNL     1       2.101   1.675  -0.022  0.00  0.00    +0.000 A 
ATOM      5  C   UNL     1      -0.184   1.746  -0.017  0.00  0.00    +0.000 A 
ATOM      6  C   UNL     1       2.144   3.034   0.199  0.00  0.00    +0.000 A 
ATOM      7  C   UNL     1      -0.142   3.105   0.204  0.00  0.00    +0.000 A 
ATOM      8  H   UNL     1      -2.118   3.574  -0.288  0.00  0.00    +0.000 HD
ATOM      9  H   UNL     1      -1.249   4.821   0.515  0.00  0.00    +0.000 HD
ENDROOT
BRANCH   4  13
ATOM     10  C   UNL     1       5.619  -0.657  -0.392  0.00  0.00    +0.000 A 
ATOM     11  C   UNL     1       5.624   0.681  -0.786  0.00  0.00    +0.000 A 
ATOM     12  C   UNL     1       4.455  -1.228   0.124  0.00  0.00    +0.000 A 
ATOM     13  C   UNL     1       3.303   0.878  -0.148  0.00  0.00    +0.000 A 
ATOM     14  C   UNL     1       4.466   1.449  -0.664  0.00  0.00    +0.000 A 
ATOM     15  C   UNL     1       3.297  -0.460   0.246  0.00  0.00    +0.000 A 
BRANCH  10  16
ATOM     16  S   UNL     1       7.085  -1.630  -0.547  0.00  0.00    +0.000 S 
ATOM     17  O   UNL     1       6.695  -3.024  -0.628  0.00  0.00    +0.000 OA
ATOM     18  O   UNL     1       7.890  -1.027  -1.591  0.00  0.00    +0.000 OA
BRANCH  16  19
ATOM     19  C   UNL     1       7.912  -1.397   1.004  0.00  0.00    +0.000 C 
ATOM     20  C   UNL     1       7.014  -1.837   2.151  0.00  0.00    +0.000 C 
ATOM     21  C   UNL     1       9.235  -2.148   1.014  0.00  0.00    +0.000 C 
ENDBRANCH  16  19
ENDBRANCH  10  16
ENDBRANCH   4  13
BRANCH   5  24
ATOM     22  O   UNL     1      -1.340  -0.103  -0.943  0.00  0.00    +0.000 OA
ATOM     23  N   UNL     1      -2.582  -0.725  -0.970  0.00  0.00    +0.000 NA
ATOM     24  C   UNL     1      -1.405   0.992  -0.143  0.00  0.00    +0.000 A 
ATOM     25  C   UNL     1      -3.360   0.021  -0.181  0.00  0.00    +0.000 A 
ATOM     26  C   UNL     1      -2.670   1.116   0.367  0.00  0.00    +0.000 A 
BRANCH  25  27
ATOM     27  C   UNL     1      -4.739  -0.328   0.033  0.00  0.00    +0.000 A 
ATOM     28  C   UNL     1      -7.414  -1.002   0.449  0.00  0.00    +0.000 A 
ATOM     29  C   UNL     1      -5.679   0.671   0.288  0.00  0.00    +0.000 A 
ATOM     30  C   UNL     1      -5.137  -1.664  -0.015  0.00  0.00    +0.000 A 
ATOM     31  C   UNL     1      -7.016   0.334   0.497  0.00  0.00    +0.000 A 
ATOM     32  C   UNL     1      -6.474  -2.001   0.193  0.00  0.00    +0.000 A 
BRANCH  28  33
ATOM     33  C   UNL     1      -8.844  -1.363   0.672  0.00  0.00    +0.000 C 
BRANCH  33  34
ATOM     34  N   UNL     1      -9.536  -1.692  -0.575  0.00  0.00    +0.000 NA
ATOM     35  C   UNL     1     -10.927  -2.027  -0.317  0.00  0.00    +0.000 C 
ATOM     36  H   UNL     1      -9.080  -2.491  -1.017  0.00  0.00    +0.000 HD
ENDBRANCH  33  34
ENDBRANCH  28  33
ENDBRANCH  25  27
ENDBRANCH   5  24
TORSDOF 7
