REMARK  Name = 
REMARK  7 active torsions:
REMARK  status: ('A' for Active; 'I' for Inactive)
REMARK    1  A    between atoms: C_1  and  N_2
REMARK    2  A    between atoms: C_4  and  S_5
REMARK    3  A    between atoms: S_5  and  N_8
REMARK    4  A    between atoms: N_17  and  C_18
REMARK    5  A    between atoms: C_26  and  C_27
REMARK    6  A    between atoms: C_27  and  C_29
REMARK    7  A    between atoms: C_31  and  C_32
REMARK                            x       y       z     vdW  Elec       q    Type
REMARK                         _______ _______ _______ _____ _____    ______ ____
ROOT
ATOM      1  N   UNL     1      -2.967   0.256  -0.506  0.00  0.00    +0.000 NA
ATOM      2  C   UNL     1      -2.366  -0.440  -1.598  0.00  0.00    +0.000 C 
ATOM      3  C   UNL     1      -1.063   0.284  -1.921  0.00  0.00    +0.000 C 
ATOM      4  C   UNL     1      -0.178  -0.013  -0.752  0.00  0.00    +0.000 C 
ATOM      5  C   UNL     1       1.075  -0.405  -0.875  0.00  0.00    +0.000 C 
ATOM      6  C   UNL     1       1.548  -1.460   0.032  0.00  0.00    +0.000 A 
ATOM      7  C   UNL     1       0.560  -2.061   0.803  0.00  0.00    +0.000 A 
ATOM      8  C   UNL     1       1.130  -3.196   1.314  0.00  0.00    +0.000 A 
ATOM      9  N   UNL     1       2.368  -3.311   0.779  0.00  0.00    +0.000 NA
ATOM     10  N   UNL     1       2.643  -2.248   0.030  0.00  0.00    +0.000 N 
ATOM     11  C   UNL     1      -0.574  -1.267   1.362  0.00  0.00    +0.000 C 
ATOM     12  C   UNL     1      -0.757   0.040   0.598  0.00  0.00    +0.000 C 
ATOM     13  C   UNL     1      -2.193   0.394   0.667  0.00  0.00    +0.000 C 
ENDROOT
BRANCH  10  14
ATOM     14  C   UNL     1       3.947  -1.717  -0.234  0.00  0.00    +0.000 A 
ATOM     15  C   UNL     1       4.781  -2.305  -1.176  0.00  0.00    +0.000 A 
ATOM     16  C   UNL     1       6.148  -2.427  -0.964  0.00  0.00    +0.000 A 
ATOM     17  C   UNL     1       6.710  -2.028   0.242  0.00  0.00    +0.000 A 
ATOM     18  F   UNL     1       7.702  -2.768   0.817  0.00  0.00    +0.000 F 
ATOM     19  C   UNL     1       5.956  -1.150   1.001  0.00  0.00    +0.000 A 
ATOM     20  C   UNL     1       4.590  -1.026   0.785  0.00  0.00    +0.000 A 
ENDBRANCH  10  14
BRANCH   1  21
ATOM     21  S   UNL     1      -4.495  -0.447  -0.070  0.00  0.00    +0.000 S 
ATOM     22  O   UNL     1      -4.698  -0.338   1.419  0.00  0.00    +0.000 OA
ATOM     23  O   UNL     1      -5.573   0.356  -0.720  0.00  0.00    +0.000 OA
BRANCH  21  27
ATOM     24  C   UNL     1      -4.153  -5.629   0.055  0.00  0.00    +0.000 C 
ATOM     25  N   UNL     1      -4.489  -4.309  -0.307  0.00  0.00    +0.000 N 
ATOM     26  C   UNL     1      -3.964  -3.140   0.110  0.00  0.00    +0.000 A 
ATOM     27  C   UNL     1      -4.582  -2.120  -0.602  0.00  0.00    +0.000 A 
ATOM     28  C   UNL     1      -5.743  -2.696  -1.100  0.00  0.00    +0.000 A 
ATOM     29  N   UNL     1      -5.511  -4.019  -1.110  0.00  0.00    +0.000 NA
ENDBRANCH  21  27
ENDBRANCH   1  21
BRANCH  12  30
ATOM     30  C   UNL     1      -0.006   1.109   1.330  0.00  0.00    +0.000 C 
ATOM     31  O   UNL     1       0.394   0.907   2.502  0.00  0.00    +0.000 OA
BRANCH  30  32
ATOM     32  C   UNL     1      -0.245   2.500   0.922  0.00  0.00    +0.000 A 
ATOM     33  C   UNL     1       0.727   3.472   1.127  0.00  0.00    +0.000 A 
ATOM     34  C   UNL     1       0.538   4.715   0.583  0.00  0.00    +0.000 A 
ATOM     35  C   UNL     1      -0.543   4.878  -0.260  0.00  0.00    +0.000 A 
ATOM     36  C   UNL     1      -1.615   4.004  -0.205  0.00  0.00    +0.000 A 
ATOM     37  N   UNL     1      -1.491   2.956   0.644  0.00  0.00    +0.000 NA
BRANCH  34  38
ATOM     38  C   UNL     1       1.408   5.889   0.874  0.00  0.00    +0.000 C 
ATOM     39  F   UNL     1       2.363   5.962  -0.109  0.00  0.00    +0.000 F 
ATOM     40  F   UNL     1       1.941   5.732   2.135  0.00  0.00    +0.000 F 
ATOM     41  F   UNL     1       0.678   7.068   0.877  0.00  0.00    +0.000 F 
ENDBRANCH  34  38
ENDBRANCH  30  32
ENDBRANCH  12  30
TORSDOF 6
