REMARK  Name = 25052023
REMARK  10 active torsions:
REMARK  status: ('A' for Active; 'I' for Inactive)
REMARK    1  A    between atoms: S_1  and  C_27
REMARK    2  A    between atoms: S_1  and  C_32
REMARK    3  A    between atoms: O_5  and  C_20
REMARK    4  A    between atoms: N_9  and  C_16
REMARK    5  A    between atoms: N_10  and  C_25
REMARK    6  A    between atoms: C_11  and  C_15
REMARK    7  A    between atoms: C_12  and  C_17
REMARK    8  A    between atoms: C_13  and  C_19
REMARK    9  A    between atoms: C_16  and  C_20
REMARK   10  A    between atoms: C_18  and  C_23
REMARK                            x       y       z     vdW  Elec       q    Type
REMARK                         _______ _______ _______ _____ _____    ______ ____
ROOT
ATOM      1  N   UNL     1      -2.150  -1.147  -0.532  0.00  0.00    +0.000 N 
ATOM      2  C   UNL     1      -2.615  -0.166   0.305  0.00  0.00    +0.000 A 
ATOM      3  C   UNL     1      -1.544   0.618   0.673  0.00  0.00    +0.000 A 
ATOM      4  C   UNL     1      -0.394   0.089   0.035  0.00  0.00    +0.000 A 
ATOM      5  C   UNL     1      -0.798  -1.001  -0.704  0.00  0.00    +0.000 A 
ATOM      6  C   UNL     1      -1.580   1.794   1.568  0.00  0.00    +0.000 C 
ENDROOT
BRANCH   2   7
ATOM      7  C   UNL     1      -4.006  -0.052   0.680  0.00  0.00    +0.000 A 
ATOM      8  C   UNL     1      -4.895   0.714  -0.073  0.00  0.00    +0.000 A 
ATOM      9  C   UNL     1      -4.455  -0.725   1.817  0.00  0.00    +0.000 A 
ATOM     10  C   UNL     1      -6.232   0.809   0.310  0.00  0.00    +0.000 A 
ATOM     11  C   UNL     1      -5.793  -0.630   2.200  0.00  0.00    +0.000 A 
ATOM     12  C   UNL     1      -6.681   0.137   1.447  0.00  0.00    +0.000 A 
BRANCH   8  16
ATOM     13  F   UNL     1      -5.452   2.149  -1.905  0.00  0.00    +0.000 F 
ATOM     14  F   UNL     1      -3.470   2.368  -1.052  0.00  0.00    +0.000 F 
ATOM     15  F   UNL     1      -3.947   0.618  -2.252  0.00  0.00    +0.000 F 
ATOM     16  C   UNL     1      -4.450   1.451  -1.296  0.00  0.00    +0.000 C 
ENDBRANCH   8  16
ENDBRANCH   2   7
BRANCH   4  19
ATOM     17  O   UNL     1       1.188   1.772   0.310  0.00  0.00    +0.000 OA
ATOM     18  N   UNL     1       1.973  -0.411  -0.035  0.00  0.00    +0.000 N 
ATOM     19  C   UNL     1       0.960   0.559   0.107  0.00  0.00    +0.000 C 
ATOM     20  H   UNL     1       1.675  -1.374  -0.179  0.00  0.00    +0.000 HD
BRANCH  18  21
ATOM     21  C   UNL     1       3.380  -0.251   0.014  0.00  0.00    +0.000 A 
ATOM     22  C   UNL     1       6.150   0.064   0.110  0.00  0.00    +0.000 A 
ATOM     23  C   UNL     1       3.931   1.012   0.230  0.00  0.00    +0.000 A 
ATOM     24  C   UNL     1       4.214  -1.357  -0.154  0.00  0.00    +0.000 A 
ATOM     25  C   UNL     1       5.316   1.169   0.278  0.00  0.00    +0.000 A 
ATOM     26  C   UNL     1       5.599  -1.199  -0.106  0.00  0.00    +0.000 A 
BRANCH  22  27
ATOM     27  S   UNL     1       7.884   0.261   0.171  0.00  0.00    +0.000 S 
ATOM     28  O   UNL     1       8.172   1.453   0.956  0.00  0.00    +0.000 OA
ATOM     29  O   UNL     1       8.491  -1.010   0.538  0.00  0.00    +0.000 OA
ATOM     30  C   UNL     1       8.350   0.590  -1.514  0.00  0.00    +0.000 C 
ENDBRANCH  22  27
ENDBRANCH  18  21
ENDBRANCH   4  19
BRANCH   1  31
ATOM     31  C   UNL     1      -2.940  -2.189  -1.151  0.00  0.00    +0.000 C 
BRANCH  31  32
ATOM     32  C   UNL     1      -2.780  -3.533  -0.450  0.00  0.00    +0.000 C 
BRANCH  32  33
ATOM     33  O   UNL     1      -1.425  -3.956  -0.525  0.00  0.00    +0.000 OA
ATOM     34  H   UNL     1      -1.368  -4.813  -0.070  0.00  0.00    +0.000 HD
ENDBRANCH  32  33
ENDBRANCH  31  32
ENDBRANCH   1  31
TORSDOF 8
