REMARK  Name = 11338127
REMARK  8 active torsions:
REMARK  status: ('A' for Active; 'I' for Inactive)
REMARK    1  A    between atoms: N_3  and  C_8
REMARK    2  A    between atoms: N_4  and  C_14
REMARK    3  A    between atoms: N_6  and  C_18
REMARK    4  A    between atoms: C_11  and  C_12
REMARK    5  A    between atoms: C_16  and  C_20
REMARK    6  A    between atoms: C_19  and  C_22
REMARK    7  A    between atoms: C_22  and  C_23
REMARK    8  A    between atoms: C_26  and  C_29
REMARK                            x       y       z     vdW  Elec       q    Type
REMARK                         _______ _______ _______ _____ _____    ______ ____
ROOT
ATOM      1  N   UNL     1      -0.489   1.104   0.278  0.00  0.00    +0.000 N 
ATOM      2  N   UNL     1       0.159   0.913   1.440  0.00  0.00    +0.000 NA
ATOM      3  C   UNL     1       0.312   1.011  -0.822  0.00  0.00    +0.000 A 
ATOM      4  C   UNL     1       1.534   0.746  -0.322  0.00  0.00    +0.000 A 
ATOM      5  C   UNL     1       1.417   0.691   1.052  0.00  0.00    +0.000 A 
ENDROOT
BRANCH   1   8
ATOM      6  C   UNL     1      -4.120   0.544   0.246  0.00  0.00    +0.000 A 
ATOM      7  C   UNL     1      -2.747   0.301   0.232  0.00  0.00    +0.000 A 
ATOM      8  C   UNL     1      -1.860   1.369   0.292  0.00  0.00    +0.000 A 
ATOM      9  C   UNL     1      -4.596   1.853   0.320  0.00  0.00    +0.000 A 
ATOM     10  C   UNL     1      -2.325   2.676   0.367  0.00  0.00    +0.000 A 
ATOM     11  C   UNL     1      -3.698   2.919   0.381  0.00  0.00    +0.000 A 
ATOM     12  C   UNL     1      -1.389   3.840   0.433  0.00  0.00    +0.000 C 
BRANCH   6  15
ATOM     13  O   UNL     1      -6.192  -0.520   0.682  0.00  0.00    +0.000 OA
ATOM     14  N   UNL     1      -4.602  -1.726  -0.454  0.00  0.00    +0.000 N 
ATOM     15  C   UNL     1      -5.057  -0.566   0.182  0.00  0.00    +0.000 C 
ATOM     16  H   UNL     1      -3.699  -1.746  -0.919  0.00  0.00    +0.000 HD
BRANCH  14  17
ATOM     17  C   UNL     1      -5.406  -2.922  -0.569  0.00  0.00    +0.000 C 
ATOM     18  C   UNL     1      -4.761  -4.252  -0.742  0.00  0.00    +0.000 C 
ATOM     19  C   UNL     1      -5.451  -3.909   0.545  0.00  0.00    +0.000 C 
ENDBRANCH  14  17
ENDBRANCH   6  15
ENDBRANCH   1   8
BRANCH   3  20
ATOM     20  N   UNL     1      -0.166   1.175  -2.075  0.00  0.00    +0.000 N 
ATOM     21  H   UNL     1       0.437   1.106  -2.889  0.00  0.00    +0.000 HD
ATOM     22  H   UNL     1      -1.141   1.377  -2.273  0.00  0.00    +0.000 HD
ENDBRANCH   3  20
BRANCH   4  24
ATOM     23  O   UNL     1       2.707   0.623  -2.368  0.00  0.00    +0.000 OA
ATOM     24  C   UNL     1       2.756   0.555  -1.130  0.00  0.00    +0.000 C 
BRANCH  24  25
ATOM     25  C   UNL     1       4.035   0.273  -0.497  0.00  0.00    +0.000 A 
ATOM     26  C   UNL     1       4.420  -1.047  -0.261  0.00  0.00    +0.000 A 
ATOM     27  C   UNL     1       4.877   1.322  -0.127  0.00  0.00    +0.000 A 
ATOM     28  C   UNL     1       5.646  -1.318   0.345  0.00  0.00    +0.000 A 
ATOM     29  C   UNL     1       6.103   1.051   0.479  0.00  0.00    +0.000 A 
ATOM     30  C   UNL     1       6.488  -0.269   0.716  0.00  0.00    +0.000 A 
BRANCH  28  32
ATOM     31  N   UNL     1       6.363  -3.768   0.786  0.00  0.00    +0.000 NA
ATOM     32  C   UNL     1       6.041  -2.669   0.588  0.00  0.00    +0.000 C 
ENDBRANCH  28  32
ENDBRANCH  24  25
ENDBRANCH   4  24
TORSDOF 7
