REMARK  Name = 25134303
REMARK  7 active torsions:
REMARK  status: ('A' for Active; 'I' for Inactive)
REMARK    1  A    between atoms: S_2  and  N_9
REMARK    2  A    between atoms: S_2  and  C_15
REMARK    3  A    between atoms: N_9  and  C_14
REMARK    4  A    between atoms: C_16  and  C_21
REMARK    5  A    between atoms: C_20  and  C_21
REMARK    6  A    between atoms: C_22  and  C_30
REMARK    7  A    between atoms: C_24  and  C_32
REMARK                            x       y       z     vdW  Elec       q    Type
REMARK                         _______ _______ _______ _____ _____    ______ ____
ROOT
ATOM      1  N   UNL     1      -1.368   2.526   0.981  0.00  0.00    +0.000 NA
ATOM      2  C   UNL     1      -2.501   1.155  -0.656  0.00  0.00    +0.000 A 
ATOM      3  C   UNL     1      -1.370   1.761  -0.134  0.00  0.00    +0.000 A 
ATOM      4  C   UNL     1      -3.708   1.347   0.007  0.00  0.00    +0.000 A 
ATOM      5  C   UNL     1      -3.746   2.128   1.157  0.00  0.00    +0.000 A 
ATOM      6  C   UNL     1      -2.559   2.691   1.599  0.00  0.00    +0.000 A 
ATOM      7  C   UNL     1      -5.021   2.352   1.889  0.00  0.00    +0.000 C 
ENDROOT
BRANCH   3   9
ATOM      8  O   UNL     1      -0.017   1.541  -2.028  0.00  0.00    +0.000 OA
ATOM      9  C   UNL     1      -0.031   1.605  -0.786  0.00  0.00    +0.000 C 
BRANCH   9  14
ATOM     10  N   UNL     1       4.619   2.341  -0.345  0.00  0.00    +0.000 N 
ATOM     11  N   UNL     1       1.141   0.997   1.210  0.00  0.00    +0.000 NA
ATOM     12  N   UNL     1       3.529   1.327   1.551  0.00  0.00    +0.000 NA
ATOM     13  C   UNL     1       2.424   1.983  -0.527  0.00  0.00    +0.000 A 
ATOM     14  C   UNL     1       1.201   1.532  -0.032  0.00  0.00    +0.000 A 
ATOM     15  C   UNL     1       3.524   1.848   0.312  0.00  0.00    +0.000 A 
ATOM     16  C   UNL     1       2.890   2.580  -1.726  0.00  0.00    +0.000 A 
ATOM     17  C   UNL     1       4.245   2.788  -1.586  0.00  0.00    +0.000 A 
ATOM     18  C   UNL     1       2.293   0.928   1.915  0.00  0.00    +0.000 A 
ATOM     19  H   UNL     1       5.558   2.370   0.028  0.00  0.00    +0.000 HD
ENDBRANCH   9  14
ENDBRANCH   3   9
BRANCH   2  20
ATOM     20  N   UNL     1      -2.455   0.354  -1.837  0.00  0.00    +0.000 N 
ATOM     21  H   UNL     1      -1.746   0.629  -2.529  0.00  0.00    +0.000 HD
BRANCH  20  22
ATOM     22  S   UNL     1      -2.766  -1.336  -1.707  0.00  0.00    +0.000 S 
ATOM     23  O   UNL     1      -2.341  -1.990  -2.930  0.00  0.00    +0.000 OA
ATOM     24  O   UNL     1      -4.106  -1.556  -1.200  0.00  0.00    +0.000 OA
BRANCH  22  26
ATOM     25 CL   UNL     1       1.260  -3.047   2.806  0.00  0.00    +0.000 Cl
ATOM     26  C   UNL     1      -1.624  -1.819  -0.444  0.00  0.00    +0.000 A 
ATOM     27  C   UNL     1      -0.336  -2.229  -0.788  0.00  0.00    +0.000 A 
ATOM     28  C   UNL     1       0.564  -2.610   0.208  0.00  0.00    +0.000 A 
ATOM     29  C   UNL     1      -2.013  -1.790   0.895  0.00  0.00    +0.000 A 
ATOM     30  C   UNL     1       0.175  -2.581   1.547  0.00  0.00    +0.000 A 
ATOM     31  C   UNL     1      -1.113  -2.171   1.891  0.00  0.00    +0.000 A 
BRANCH  28  35
ATOM     32  F   UNL     1       2.135  -3.011  -1.551  0.00  0.00    +0.000 F 
ATOM     33  F   UNL     1       2.929  -2.276   0.330  0.00  0.00    +0.000 F 
ATOM     34  F   UNL     1       2.212  -4.324   0.181  0.00  0.00    +0.000 F 
ATOM     35  C   UNL     1       1.934  -3.045  -0.201  0.00  0.00    +0.000 C 
ENDBRANCH  28  35
ENDBRANCH  22  26
ENDBRANCH  20  22
ENDBRANCH   2  20
TORSDOF 6
