REMARK  Name = 89792952
REMARK  10 active torsions:
REMARK  status: ('A' for Active; 'I' for Inactive)
REMARK    1  A    between atoms: S_1  and  C_22
REMARK    2  A    between atoms: S_1  and  C_29
REMARK    3  A    between atoms: O_5  and  C_28
REMARK    4  A    between atoms: O_5  and  C_30
REMARK    5  A    between atoms: N_9  and  C_18
REMARK    6  A    between atoms: C_11  and  C_12
REMARK    7  A    between atoms: C_13  and  C_14
REMARK    8  A    between atoms: C_18  and  C_28
REMARK    9  A    between atoms: C_19  and  C_27
REMARK   10  A    between atoms: C_30  and  C_31
REMARK                            x       y       z     vdW  Elec       q    Type
REMARK                         _______ _______ _______ _____ _____    ______ ____
ROOT
ATOM      1  C   UNL     1      -1.229  -0.813  -0.156  0.00  0.00    +0.000 A 
ATOM      2  C   UNL     1       1.533  -1.183  -0.287  0.00  0.00    +0.000 A 
ATOM      3  C   UNL     1      -0.415  -0.365   0.884  0.00  0.00    +0.000 A 
ATOM      4  C   UNL     1      -0.662  -1.446  -1.262  0.00  0.00    +0.000 A 
ATOM      5  C   UNL     1       0.966  -0.550   0.819  0.00  0.00    +0.000 A 
ATOM      6  C   UNL     1       0.719  -1.631  -1.328  0.00  0.00    +0.000 A 
ENDROOT
BRANCH   2   7
ATOM      7  C   UNL     1       2.965  -1.373  -0.355  0.00  0.00    +0.000 A 
ATOM      8  C   UNL     1       5.202  -0.648   0.200  0.00  0.00    +0.000 A 
ATOM      9  C   UNL     1       3.821  -0.463   0.266  0.00  0.00    +0.000 A 
ATOM     10  C   UNL     1       3.491  -2.468  -1.042  0.00  0.00    +0.000 A 
ATOM     11  C   UNL     1       5.727  -1.742  -0.487  0.00  0.00    +0.000 A 
ATOM     12  C   UNL     1       4.872  -2.652  -1.108  0.00  0.00    +0.000 A 
BRANCH   8  13
ATOM     13  S   UNL     1       6.274   0.492   0.976  0.00  0.00    +0.000 S 
ATOM     14  O   UNL     1       5.552   1.163   2.048  0.00  0.00    +0.000 OA
ATOM     15  O   UNL     1       7.524  -0.195   1.266  0.00  0.00    +0.000 OA
ATOM     16  C   UNL     1       6.599   1.715  -0.274  0.00  0.00    +0.000 C 
ENDBRANCH   8  13
ENDBRANCH   2   7
BRANCH   1  19
ATOM     17  N   UNL     1      -3.302   0.481  -0.568  0.00  0.00    +0.000 N 
ATOM     18  N   UNL     1      -4.635   0.448  -0.398  0.00  0.00    +0.000 NA
ATOM     19  C   UNL     1      -2.657  -0.621  -0.088  0.00  0.00    +0.000 A 
ATOM     20  C   UNL     1      -3.636  -1.431   0.433  0.00  0.00    +0.000 A 
ATOM     21  C   UNL     1      -4.833  -0.723   0.214  0.00  0.00    +0.000 A 
BRANCH  21  25
ATOM     22  F   UNL     1      -6.249  -2.357   1.201  0.00  0.00    +0.000 F 
ATOM     23  F   UNL     1      -6.837  -0.278   1.442  0.00  0.00    +0.000 F 
ATOM     24  F   UNL     1      -7.059  -1.248  -0.484  0.00  0.00    +0.000 F 
ATOM     25  C   UNL     1      -6.199  -1.135   0.580  0.00  0.00    +0.000 C 
ENDBRANCH  21  25
BRANCH  17  26
ATOM     26  C   UNL     1      -2.708   1.629  -1.214  0.00  0.00    +0.000 C 
BRANCH  26  28
ATOM     27  O   UNL     1      -2.335   2.718   0.929  0.00  0.00    +0.000 OA
ATOM     28  C   UNL     1      -2.026   2.565  -0.245  0.00  0.00    +0.000 C 
BRANCH  28  29
ATOM     29  O   UNL     1      -1.012   3.210  -0.895  0.00  0.00    +0.000 OA
BRANCH  29  30
ATOM     30  C   UNL     1      -0.264   4.138  -0.103  0.00  0.00    +0.000 C 
ATOM     31  C   UNL     1       0.814   4.763  -0.963  0.00  0.00    +0.000 C 
ENDBRANCH  29  30
ENDBRANCH  28  29
ENDBRANCH  26  28
ENDBRANCH  17  26
ENDBRANCH   1  19
TORSDOF 8
