MODEL 1
REMARK VINA RESULT:    -7.095      0.000      0.000
REMARK INTER + INTRA:         -13.636
REMARK INTER:                  -9.779
REMARK INTRA:                  -3.857
REMARK CONF_INDEPENDENT:        2.685
REMARK UNBOUND:                 3.857
REMARK  Name = 71236992
REMARK  10 active torsions:
REMARK  status: ('A' for Active; 'I' for Inactive)
REMARK    1  A    between atoms: O_6  and  C_25
REMARK    2  A    between atoms: N_8  and  C_18
REMARK    3  A    between atoms: N_9  and  C_12
REMARK    4  A    between atoms: N_11  and  C_20
REMARK    5  A    between atoms: C_18  and  C_25
REMARK    6  A    between atoms: C_20  and  C_21
REMARK    7  A    between atoms: C_20  and  C_27
REMARK    8  A    between atoms: C_30  and  C_31
REMARK    9  A    between atoms: C_31  and  C_32
REMARK   10  A    between atoms: C_32  and  C_33
REMARK                            x       y       z     vdW  Elec       q    Type
REMARK                         _______ _______ _______ _____ _____    ______ ____
ROOT
ATOM      1  O   UNL     1      -1.881  -0.671   2.340  0.00  0.00    +0.000 OA
ATOM      2  N   UNL     1      -3.895  -0.399   1.217  0.00  0.00    +0.000 N 
ATOM      3  N   UNL     1      -6.036   0.230   0.414  0.00  0.00    +0.000 NA
ATOM      4  C   UNL     1      -1.986   1.119   0.746  0.00  0.00    +0.000 C 
ATOM      5  C   UNL     1      -1.671   0.682  -0.660  0.00  0.00    +0.000 A 
ATOM      6  C   UNL     1      -2.755   0.389  -1.513  0.00  0.00    +0.000 A 
ATOM      7  C   UNL     1      -2.564  -0.066   1.507  0.00  0.00    +0.000 C 
ATOM      8  C   UNL     1      -4.162   0.579  -1.081  0.00  0.00    +0.000 A 
ATOM      9  C   UNL     1      -4.696   0.160   0.156  0.00  0.00    +0.000 A 
ATOM     10  C   UNL     1      -0.352   0.505  -1.119  0.00  0.00    +0.000 A 
ATOM     11  C   UNL     1      -2.468  -0.092  -2.809  0.00  0.00    +0.000 A 
ATOM     12  C   UNL     1      -5.070   1.169  -1.989  0.00  0.00    +0.000 A 
ATOM     13  C   UNL     1      -0.098   0.044  -2.409  0.00  0.00    +0.000 A 
ATOM     14  C   UNL     1      -1.156  -0.260  -3.253  0.00  0.00    +0.000 A 
ATOM     15  C   UNL     1      -6.423   1.284  -1.704  0.00  0.00    +0.000 A 
ATOM     16  C   UNL     1      -6.856   0.786  -0.500  0.00  0.00    +0.000 A 
ENDROOT
BRANCH   4  18
ATOM     17  O   UNL     1      -0.554   3.566   0.267  0.00  0.00    +0.000 OA
ATOM     18  N   UNL     1      -0.864   1.624   1.498  0.00  0.00    +0.000 N 
ATOM     19  C   UNL     1      -0.233   2.822   1.191  0.00  0.00    +0.000 C 
ATOM     20  H   UNL     1      -0.515   1.066   2.273  0.00  0.00    +0.000 HD
BRANCH  19  21
ATOM     21  C   UNL     1       0.890   3.147   2.167  0.00  0.00    +0.000 C 
ATOM     22  C   UNL     1       0.544   4.365   3.008  0.00  0.00    +0.000 C 
BRANCH  21  24
ATOM     23  O   UNL     1       3.602   2.763   3.068  0.00  0.00    +0.000 OA
ATOM     24  N   UNL     1       2.093   3.361   1.406  0.00  0.00    +0.000 N 
ATOM     25  C   UNL     1       3.364   3.147   1.927  0.00  0.00    +0.000 C 
ATOM     26  H   UNL     1       2.001   3.617   0.427  0.00  0.00    +0.000 HD
BRANCH  25  27
ATOM     27  C   UNL     1       4.447   3.453   0.909  0.00  0.00    +0.000 C 
BRANCH  27  28
ATOM     28  C   UNL     1       4.033   3.085  -0.513  0.00  0.00    +0.000 C 
BRANCH  28  32
ATOM     29  F   UNL     1       4.103   0.898   0.388  0.00  0.00    +0.000 F 
ATOM     30  F   UNL     1       2.249   1.532  -0.577  0.00  0.00    +0.000 F 
ATOM     31  F   UNL     1       4.015   1.101  -1.782  0.00  0.00    +0.000 F 
ATOM     32  C   UNL     1       3.593   1.641  -0.617  0.00  0.00    +0.000 C 
ENDBRANCH  28  32
ENDBRANCH  27  28
ENDBRANCH  25  27
ENDBRANCH  21  24
ENDBRANCH  19  21
ENDBRANCH   4  18
BRANCH   2  33
ATOM     33  C   UNL     1      -4.591  -1.318   2.121  0.00  0.00    +0.000 C 
BRANCH  33  34
ATOM     34  C   UNL     1      -4.167  -2.757   1.888  0.00  0.00    +0.000 C 
BRANCH  34  35
ATOM     35  O   UNL     1      -2.921  -2.993   2.531  0.00  0.00    +0.000 OA
ATOM     36  H   UNL     1      -2.224  -2.779   1.888  0.00  0.00    +0.000 HD
ENDBRANCH  34  35
ENDBRANCH  33  34
ENDBRANCH   2  33
TORSDOF 9
ENDMDL
MODEL 2
REMARK VINA RESULT:    -6.296      4.510      8.108
REMARK INTER + INTRA:         -12.684
REMARK INTER:                  -8.981
REMARK INTRA:                  -3.703
REMARK CONF_INDEPENDENT:        2.685
REMARK UNBOUND:                 3.703
REMARK  Name = 71236992
REMARK  10 active torsions:
REMARK  status: ('A' for Active; 'I' for Inactive)
REMARK    1  A    between atoms: O_6  and  C_25
REMARK    2  A    between atoms: N_8  and  C_18
REMARK    3  A    between atoms: N_9  and  C_12
REMARK    4  A    between atoms: N_11  and  C_20
REMARK    5  A    between atoms: C_18  and  C_25
REMARK    6  A    between atoms: C_20  and  C_21
REMARK    7  A    between atoms: C_20  and  C_27
REMARK    8  A    between atoms: C_30  and  C_31
REMARK    9  A    between atoms: C_31  and  C_32
REMARK   10  A    between atoms: C_32  and  C_33
REMARK                            x       y       z     vdW  Elec       q    Type
REMARK                         _______ _______ _______ _____ _____    ______ ____
ROOT
ATOM      1  O   UNL     1       1.578   0.539  -4.803  0.00  0.00    +0.000 OA
ATOM      2  N   UNL     1       1.997   2.789  -5.194  0.00  0.00    +0.000 N 
ATOM      3  N   UNL     1       1.951   5.095  -5.744  0.00  0.00    +0.000 NA
ATOM      4  C   UNL     1       0.879   2.073  -3.095  0.00  0.00    +0.000 C 
ATOM      5  C   UNL     1       1.970   2.407  -2.113  0.00  0.00    +0.000 A 
ATOM      6  C   UNL     1       2.701   3.594  -2.326  0.00  0.00    +0.000 A 
ATOM      7  C   UNL     1       1.517   1.715  -4.431  0.00  0.00    +0.000 C 
ATOM      8  C   UNL     1       2.364   4.533  -3.425  0.00  0.00    +0.000 A 
ATOM      9  C   UNL     1       2.098   4.160  -4.759  0.00  0.00    +0.000 A 
ATOM     10  C   UNL     1       2.314   1.556  -1.046  0.00  0.00    +0.000 A 
ATOM     11  C   UNL     1       3.774   3.878  -1.453  0.00  0.00    +0.000 A 
ATOM     12  C   UNL     1       2.362   5.919  -3.148  0.00  0.00    +0.000 A 
ATOM     13  C   UNL     1       3.369   1.868  -0.191  0.00  0.00    +0.000 A 
ATOM     14  C   UNL     1       4.102   3.027  -0.396  0.00  0.00    +0.000 A 
ATOM     15  C   UNL     1       2.163   6.865  -4.142  0.00  0.00    +0.000 A 
ATOM     16  C   UNL     1       1.978   6.404  -5.422  0.00  0.00    +0.000 A 
ENDROOT
BRANCH   4  18
ATOM     17  O   UNL     1      -1.964   1.899  -3.491  0.00  0.00    +0.000 OA
ATOM     18  N   UNL     1       0.019   0.982  -2.709  0.00  0.00    +0.000 N 
ATOM     19  C   UNL     1      -1.350   0.986  -2.942  0.00  0.00    +0.000 C 
ATOM     20  H   UNL     1       0.436   0.187  -2.231  0.00  0.00    +0.000 HD
BRANCH  19  21
ATOM     21  C   UNL     1      -2.016  -0.303  -2.481  0.00  0.00    +0.000 C 
ATOM     22  C   UNL     1      -3.254  -0.603  -3.312  0.00  0.00    +0.000 C 
BRANCH  21  24
ATOM     23  O   UNL     1      -0.190  -0.414  -0.252  0.00  0.00    +0.000 OA
ATOM     24  N   UNL     1      -2.344  -0.160  -1.087  0.00  0.00    +0.000 N 
ATOM     25  C   UNL     1      -1.391  -0.228  -0.077  0.00  0.00    +0.000 C 
ATOM     26  H   UNL     1      -3.304   0.064  -0.841  0.00  0.00    +0.000 HD
BRANCH  25  27
ATOM     27  C   UNL     1      -2.013  -0.046   1.296  0.00  0.00    +0.000 C 
BRANCH  27  28
ATOM     28  C   UNL     1      -2.462  -1.368   1.913  0.00  0.00    +0.000 C 
BRANCH  28  32
ATOM     29  F   UNL     1      -4.704  -1.158   2.638  0.00  0.00    +0.000 F 
ATOM     30  F   UNL     1      -4.330  -1.094   0.487  0.00  0.00    +0.000 F 
ATOM     31  F   UNL     1      -4.148  -2.977   1.572  0.00  0.00    +0.000 F 
ATOM     32  C   UNL     1      -3.925  -1.646   1.650  0.00  0.00    +0.000 C 
ENDBRANCH  28  32
ENDBRANCH  27  28
ENDBRANCH  25  27
ENDBRANCH  21  24
ENDBRANCH  19  21
ENDBRANCH   4  18
BRANCH   2  33
ATOM     33  C   UNL     1       2.338   2.542  -6.597  0.00  0.00    +0.000 C 
BRANCH  33  34
ATOM     34  C   UNL     1       3.735   1.965  -6.739  0.00  0.00    +0.000 C 
BRANCH  34  35
ATOM     35  O   UNL     1       3.800   0.713  -6.067  0.00  0.00    +0.000 OA
ATOM     36  H   UNL     1       3.717   0.896  -5.116  0.00  0.00    +0.000 HD
ENDBRANCH  34  35
ENDBRANCH  33  34
ENDBRANCH   2  33
TORSDOF 9
ENDMDL
MODEL 3
REMARK VINA RESULT:    -5.949      1.495      1.824
REMARK INTER + INTRA:         -13.225
REMARK INTER:                  -8.634
REMARK INTRA:                  -4.592
REMARK CONF_INDEPENDENT:        2.685
REMARK UNBOUND:                 4.592
REMARK  Name = 71236992
REMARK  10 active torsions:
REMARK  status: ('A' for Active; 'I' for Inactive)
REMARK    1  A    between atoms: O_6  and  C_25
REMARK    2  A    between atoms: N_8  and  C_18
REMARK    3  A    between atoms: N_9  and  C_12
REMARK    4  A    between atoms: N_11  and  C_20
REMARK    5  A    between atoms: C_18  and  C_25
REMARK    6  A    between atoms: C_20  and  C_21
REMARK    7  A    between atoms: C_20  and  C_27
REMARK    8  A    between atoms: C_30  and  C_31
REMARK    9  A    between atoms: C_31  and  C_32
REMARK   10  A    between atoms: C_32  and  C_33
REMARK                            x       y       z     vdW  Elec       q    Type
REMARK                         _______ _______ _______ _____ _____    ______ ____
ROOT
ATOM      1  O   UNL     1      -1.890  -0.558   2.020  0.00  0.00    +0.000 OA
ATOM      2  N   UNL     1      -4.021  -0.182   1.180  0.00  0.00    +0.000 N 
ATOM      3  N   UNL     1      -6.206   0.576   0.652  0.00  0.00    +0.000 NA
ATOM      4  C   UNL     1      -2.098   1.152   0.351  0.00  0.00    +0.000 C 
ATOM      5  C   UNL     1      -2.024   0.622  -1.057  0.00  0.00    +0.000 A 
ATOM      6  C   UNL     1      -3.240   0.373  -1.727  0.00  0.00    +0.000 A 
ATOM      7  C   UNL     1      -2.642   0.057   1.257  0.00  0.00    +0.000 C 
ATOM      8  C   UNL     1      -4.551   0.697  -1.112  0.00  0.00    +0.000 A 
ATOM      9  C   UNL     1      -4.927   0.386   0.211  0.00  0.00    +0.000 A 
ATOM     10  C   UNL     1      -0.803   0.316  -1.686  0.00  0.00    +0.000 A 
ATOM     11  C   UNL     1      -3.180  -0.193  -3.019  0.00  0.00    +0.000 A 
ATOM     12  C   UNL     1      -5.536   1.312  -1.917  0.00  0.00    +0.000 A 
ATOM     13  C   UNL     1      -0.774  -0.228  -2.968  0.00  0.00    +0.000 A 
ATOM     14  C   UNL     1      -1.963  -0.487  -3.634  0.00  0.00    +0.000 A 
ATOM     15  C   UNL     1      -6.821   1.549  -1.451  0.00  0.00    +0.000 A 
ATOM     16  C   UNL     1      -7.109   1.149  -0.169  0.00  0.00    +0.000 A 
ENDROOT
BRANCH   4  18
ATOM     17  O   UNL     1      -1.306   3.875   0.826  0.00  0.00    +0.000 OA
ATOM     18  N   UNL     1      -0.844   1.603   0.903  0.00  0.00    +0.000 N 
ATOM     19  C   UNL     1      -0.549   2.946   1.098  0.00  0.00    +0.000 C 
ATOM     20  H   UNL     1      -0.146   0.904   1.143  0.00  0.00    +0.000 HD
BRANCH  19  21
ATOM     21  C   UNL     1       0.818   3.147   1.738  0.00  0.00    +0.000 C 
ATOM     22  C   UNL     1       0.815   4.359   2.656  0.00  0.00    +0.000 C 
BRANCH  21  24
ATOM     23  O   UNL     1       1.527   1.178  -0.245  0.00  0.00    +0.000 OA
ATOM     24  N   UNL     1       1.786   3.292   0.683  0.00  0.00    +0.000 N 
ATOM     25  C   UNL     1       2.063   2.282  -0.232  0.00  0.00    +0.000 C 
ATOM     26  H   UNL     1       2.238   4.195   0.568  0.00  0.00    +0.000 HD
BRANCH  25  27
ATOM     27  C   UNL     1       3.125   2.704  -1.231  0.00  0.00    +0.000 C 
BRANCH  27  28
ATOM     28  C   UNL     1       2.542   3.479  -2.410  0.00  0.00    +0.000 C 
BRANCH  28  32
ATOM     29  F   UNL     1       0.250   2.894  -2.475  0.00  0.00    +0.000 F 
ATOM     30  F   UNL     1       1.294   3.097  -4.383  0.00  0.00    +0.000 F 
ATOM     31  F   UNL     1       1.701   1.387  -3.092  0.00  0.00    +0.000 F 
ATOM     32  C   UNL     1       1.434   2.712  -3.097  0.00  0.00    +0.000 C 
ENDBRANCH  28  32
ENDBRANCH  27  28
ENDBRANCH  25  27
ENDBRANCH  21  24
ENDBRANCH  19  21
ENDBRANCH   4  18
BRANCH   2  33
ATOM     33  C   UNL     1      -4.643  -0.996   2.228  0.00  0.00    +0.000 C 
BRANCH  33  34
ATOM     34  C   UNL     1      -4.521  -2.479   1.928  0.00  0.00    +0.000 C 
BRANCH  34  35
ATOM     35  O   UNL     1      -3.213  -2.924   2.263  0.00  0.00    +0.000 OA
ATOM     36  H   UNL     1      -2.610  -2.569   1.589  0.00  0.00    +0.000 HD
ENDBRANCH  34  35
ENDBRANCH  33  34
ENDBRANCH   2  33
TORSDOF 9
ENDMDL
MODEL 4
REMARK VINA RESULT:    -5.901      2.966      7.012
REMARK INTER + INTRA:         -12.714
REMARK INTER:                  -8.585
REMARK INTRA:                  -4.128
REMARK CONF_INDEPENDENT:        2.685
REMARK UNBOUND:                 4.128
REMARK  Name = 71236992
REMARK  10 active torsions:
REMARK  status: ('A' for Active; 'I' for Inactive)
REMARK    1  A    between atoms: O_6  and  C_25
REMARK    2  A    between atoms: N_8  and  C_18
REMARK    3  A    between atoms: N_9  and  C_12
REMARK    4  A    between atoms: N_11  and  C_20
REMARK    5  A    between atoms: C_18  and  C_25
REMARK    6  A    between atoms: C_20  and  C_21
REMARK    7  A    between atoms: C_20  and  C_27
REMARK    8  A    between atoms: C_30  and  C_31
REMARK    9  A    between atoms: C_31  and  C_32
REMARK   10  A    between atoms: C_32  and  C_33
REMARK                            x       y       z     vdW  Elec       q    Type
REMARK                         _______ _______ _______ _____ _____    ______ ____
ROOT
ATOM      1  O   UNL     1      -2.980   2.634   0.679  0.00  0.00    +0.000 OA
ATOM      2  N   UNL     1      -0.685   2.964   0.580  0.00  0.00    +0.000 N 
ATOM      3  N   UNL     1       1.651   3.146   0.953  0.00  0.00    +0.000 NA
ATOM      4  C   UNL     1      -1.636   0.692   0.260  0.00  0.00    +0.000 C 
ATOM      5  C   UNL     1      -1.311   0.496  -1.198  0.00  0.00    +0.000 A 
ATOM      6  C   UNL     1      -0.066   0.971  -1.660  0.00  0.00    +0.000 A 
ATOM      7  C   UNL     1      -1.844   2.178   0.519  0.00  0.00    +0.000 C 
ATOM      8  C   UNL     1       0.934   1.567  -0.739  0.00  0.00    +0.000 A 
ATOM      9  C   UNL     1       0.652   2.530   0.253  0.00  0.00    +0.000 A 
ATOM     10  C   UNL     1      -2.220  -0.079  -2.104  0.00  0.00    +0.000 A 
ATOM     11  C   UNL     1       0.216   0.858  -3.038  0.00  0.00    +0.000 A 
ATOM     12  C   UNL     1       2.290   1.201  -0.890  0.00  0.00    +0.000 A 
ATOM     13  C   UNL     1      -1.909  -0.192  -3.457  0.00  0.00    +0.000 A 
ATOM     14  C   UNL     1      -0.693   0.281  -3.926  0.00  0.00    +0.000 A 
ATOM     15  C   UNL     1       3.298   1.793  -0.143  0.00  0.00    +0.000 A 
ATOM     16  C   UNL     1       2.928   2.767   0.750  0.00  0.00    +0.000 A 
ENDROOT
BRANCH   4  18
ATOM     17  O   UNL     1      -1.845  -0.926   2.628  0.00  0.00    +0.000 OA
ATOM     18  N   UNL     1      -2.807  -0.007   0.727  0.00  0.00    +0.000 N 
ATOM     19  C   UNL     1      -2.814  -0.769   1.888  0.00  0.00    +0.000 C 
ATOM     20  H   UNL     1      -3.655   0.050   0.169  0.00  0.00    +0.000 HD
BRANCH  19  21
ATOM     21  C   UNL     1      -4.186  -1.361   2.179  0.00  0.00    +0.000 C 
ATOM     22  C   UNL     1      -4.207  -2.854   1.888  0.00  0.00    +0.000 C 
BRANCH  21  24
ATOM     23  O   UNL     1      -4.856   1.439   2.333  0.00  0.00    +0.000 OA
ATOM     24  N   UNL     1      -5.153  -0.658   1.379  0.00  0.00    +0.000 N 
ATOM     25  C   UNL     1      -5.410   0.700   1.524  0.00  0.00    +0.000 C 
ATOM     26  H   UNL     1      -5.619  -1.168   0.632  0.00  0.00    +0.000 HD
BRANCH  25  27
ATOM     27  C   UNL     1      -6.475   1.178   0.554  0.00  0.00    +0.000 C 
BRANCH  27  28
ATOM     28  C   UNL     1      -5.901   1.539  -0.813  0.00  0.00    +0.000 C 
BRANCH  28  32
ATOM     29  F   UNL     1      -5.319   0.669  -2.935  0.00  0.00    +0.000 F 
ATOM     30  F   UNL     1      -4.978  -0.606  -1.194  0.00  0.00    +0.000 F 
ATOM     31  F   UNL     1      -7.009  -0.235  -1.895  0.00  0.00    +0.000 F 
ATOM     32  C   UNL     1      -5.795   0.332  -1.718  0.00  0.00    +0.000 C 
ENDBRANCH  28  32
ENDBRANCH  27  28
ENDBRANCH  25  27
ENDBRANCH  21  24
ENDBRANCH  19  21
ENDBRANCH   4  18
BRANCH   2  33
ATOM     33  C   UNL     1      -0.796   4.321   1.120  0.00  0.00    +0.000 C 
BRANCH  33  34
ATOM     34  C   UNL     1      -0.854   4.315   2.637  0.00  0.00    +0.000 C 
BRANCH  34  35
ATOM     35  O   UNL     1       0.438   4.033   3.158  0.00  0.00    +0.000 OA
ATOM     36  H   UNL     1       0.660   3.124   2.893  0.00  0.00    +0.000 HD
ENDBRANCH  34  35
ENDBRANCH  33  34
ENDBRANCH   2  33
TORSDOF 9
ENDMDL
MODEL 5
REMARK VINA RESULT:    -5.865      2.261      3.385
REMARK INTER + INTRA:         -12.643
REMARK INTER:                  -8.549
REMARK INTRA:                  -4.093
REMARK CONF_INDEPENDENT:        2.685
REMARK UNBOUND:                 4.093
REMARK  Name = 71236992
REMARK  10 active torsions:
REMARK  status: ('A' for Active; 'I' for Inactive)
REMARK    1  A    between atoms: O_6  and  C_25
REMARK    2  A    between atoms: N_8  and  C_18
REMARK    3  A    between atoms: N_9  and  C_12
REMARK    4  A    between atoms: N_11  and  C_20
REMARK    5  A    between atoms: C_18  and  C_25
REMARK    6  A    between atoms: C_20  and  C_21
REMARK    7  A    between atoms: C_20  and  C_27
REMARK    8  A    between atoms: C_30  and  C_31
REMARK    9  A    between atoms: C_31  and  C_32
REMARK   10  A    between atoms: C_32  and  C_33
REMARK                            x       y       z     vdW  Elec       q    Type
REMARK                         _______ _______ _______ _____ _____    ______ ____
ROOT
ATOM      1  O   UNL     1      -0.438  -0.978  -0.559  0.00  0.00    +0.000 OA
ATOM      2  N   UNL     1      -2.264  -0.017   0.504  0.00  0.00    +0.000 N 
ATOM      3  N   UNL     1      -3.788   1.264   1.793  0.00  0.00    +0.000 NA
ATOM      4  C   UNL     1      -1.327   1.017  -1.551  0.00  0.00    +0.000 C 
ATOM      5  C   UNL     1      -2.467   0.753  -2.497  0.00  0.00    +0.000 A 
ATOM      6  C   UNL     1      -3.779   0.892  -1.996  0.00  0.00    +0.000 A 
ATOM      7  C   UNL     1      -1.293  -0.090  -0.505  0.00  0.00    +0.000 C 
ATOM      8  C   UNL     1      -4.041   1.363  -0.613  0.00  0.00    +0.000 A 
ATOM      9  C   UNL     1      -3.380   0.896   0.542  0.00  0.00    +0.000 A 
ATOM     10  C   UNL     1      -2.267   0.322  -3.822  0.00  0.00    +0.000 A 
ATOM     11  C   UNL     1      -4.853   0.576  -2.856  0.00  0.00    +0.000 A 
ATOM     12  C   UNL     1      -5.071   2.308  -0.409  0.00  0.00    +0.000 A 
ATOM     13  C   UNL     1      -3.347   0.031  -4.652  0.00  0.00    +0.000 A 
ATOM     14  C   UNL     1      -4.641   0.153  -4.169  0.00  0.00    +0.000 A 
ATOM     15  C   UNL     1      -5.451   2.717   0.861  0.00  0.00    +0.000 A 
ATOM     16  C   UNL     1      -4.791   2.155   1.925  0.00  0.00    +0.000 A 
ENDROOT
BRANCH   4  18
ATOM     17  O   UNL     1      -0.424   2.969  -3.460  0.00  0.00    +0.000 OA
ATOM     18  N   UNL     1      -0.023   1.086  -2.164  0.00  0.00    +0.000 N 
ATOM     19  C   UNL     1       0.324   2.070  -3.081  0.00  0.00    +0.000 C 
ATOM     20  H   UNL     1       0.659   0.371  -1.924  0.00  0.00    +0.000 HD
BRANCH  19  21
ATOM     21  C   UNL     1       1.771   1.944  -3.539  0.00  0.00    +0.000 C 
ATOM     22  C   UNL     1       2.083   0.517  -3.964  0.00  0.00    +0.000 C 
BRANCH  21  24
ATOM     23  O   UNL     1       2.280   0.522  -1.083  0.00  0.00    +0.000 OA
ATOM     24  N   UNL     1       2.619   2.365  -2.457  0.00  0.00    +0.000 N 
ATOM     25  C   UNL     1       2.806   1.609  -1.305  0.00  0.00    +0.000 C 
ATOM     26  H   UNL     1       3.153   3.222  -2.572  0.00  0.00    +0.000 HD
BRANCH  25  27
ATOM     27  C   UNL     1       3.748   2.292  -0.330  0.00  0.00    +0.000 C 
BRANCH  27  28
ATOM     28  C   UNL     1       3.035   2.771   0.931  0.00  0.00    +0.000 C 
BRANCH  28  32
ATOM     29  F   UNL     1       0.826   2.060   0.468  0.00  0.00    +0.000 F 
ATOM     30  F   UNL     1       1.073   3.861   1.679  0.00  0.00    +0.000 F 
ATOM     31  F   UNL     1       1.513   3.913  -0.456  0.00  0.00    +0.000 F 
ATOM     32  C   UNL     1       1.597   3.152   0.658  0.00  0.00    +0.000 C 
ENDBRANCH  28  32
ENDBRANCH  27  28
ENDBRANCH  25  27
ENDBRANCH  21  24
ENDBRANCH  19  21
ENDBRANCH   4  18
BRANCH   2  33
ATOM     33  C   UNL     1      -2.096  -0.864   1.687  0.00  0.00    +0.000 C 
BRANCH  33  34
ATOM     34  C   UNL     1      -3.384  -1.585   2.045  0.00  0.00    +0.000 C 
BRANCH  34  35
ATOM     35  O   UNL     1      -3.090  -2.932   2.394  0.00  0.00    +0.000 OA
ATOM     36  H   UNL     1      -2.692  -3.349   1.612  0.00  0.00    +0.000 HD
ENDBRANCH  34  35
ENDBRANCH  33  34
ENDBRANCH   2  33
TORSDOF 9
ENDMDL
MODEL 6
REMARK VINA RESULT:    -5.838      2.532      3.445
REMARK INTER + INTRA:         -13.241
REMARK INTER:                  -8.522
REMARK INTRA:                  -4.718
REMARK CONF_INDEPENDENT:        2.685
REMARK UNBOUND:                 4.718
REMARK  Name = 71236992
REMARK  10 active torsions:
REMARK  status: ('A' for Active; 'I' for Inactive)
REMARK    1  A    between atoms: O_6  and  C_25
REMARK    2  A    between atoms: N_8  and  C_18
REMARK    3  A    between atoms: N_9  and  C_12
REMARK    4  A    between atoms: N_11  and  C_20
REMARK    5  A    between atoms: C_18  and  C_25
REMARK    6  A    between atoms: C_20  and  C_21
REMARK    7  A    between atoms: C_20  and  C_27
REMARK    8  A    between atoms: C_30  and  C_31
REMARK    9  A    between atoms: C_31  and  C_32
REMARK   10  A    between atoms: C_32  and  C_33
REMARK                            x       y       z     vdW  Elec       q    Type
REMARK                         _______ _______ _______ _____ _____    ______ ____
ROOT
ATOM      1  O   UNL     1      -0.407  -1.310   0.760  0.00  0.00    +0.000 OA
ATOM      2  N   UNL     1      -2.566  -0.717   1.373  0.00  0.00    +0.000 N 
ATOM      3  N   UNL     1      -4.541   0.184   2.328  0.00  0.00    +0.000 NA
ATOM      4  C   UNL     1      -1.272   0.717  -0.189  0.00  0.00    +0.000 C 
ATOM      5  C   UNL     1      -2.073   0.491  -1.444  0.00  0.00    +0.000 A 
ATOM      6  C   UNL     1      -3.476   0.417  -1.320  0.00  0.00    +0.000 A 
ATOM      7  C   UNL     1      -1.362  -0.532   0.679  0.00  0.00    +0.000 C 
ATOM      8  C   UNL     1      -4.159   0.634  -0.021  0.00  0.00    +0.000 A 
ATOM      9  C   UNL     1      -3.768   0.061   1.208  0.00  0.00    +0.000 A 
ATOM     10  C   UNL     1      -1.470   0.297  -2.701  0.00  0.00    +0.000 A 
ATOM     11  C   UNL     1      -4.229   0.132  -2.480  0.00  0.00    +0.000 A 
ATOM     12  C   UNL     1      -5.329   1.427  -0.001  0.00  0.00    +0.000 A 
ATOM     13  C   UNL     1      -2.239   0.032  -3.831  0.00  0.00    +0.000 A 
ATOM     14  C   UNL     1      -3.619  -0.055  -3.721  0.00  0.00    +0.000 A 
ATOM     15  C   UNL     1      -6.085   1.590   1.151  0.00  0.00    +0.000 A 
ATOM     16  C   UNL     1      -5.658   0.937   2.281  0.00  0.00    +0.000 A 
ENDROOT
BRANCH   4  18
ATOM     17  O   UNL     1      -0.139   3.264  -0.893  0.00  0.00    +0.000 OA
ATOM     18  N   UNL     1       0.124   1.013  -0.396  0.00  0.00    +0.000 N 
ATOM     19  C   UNL     1       0.580   2.280  -0.736  0.00  0.00    +0.000 C 
ATOM     20  H   UNL     1       0.794   0.254  -0.304  0.00  0.00    +0.000 HD
BRANCH  19  21
ATOM     21  C   UNL     1       2.098   2.332  -0.849  0.00  0.00    +0.000 C 
ATOM     22  C   UNL     1       2.629   3.687  -0.408  0.00  0.00    +0.000 C 
BRANCH  21  24
ATOM     23  O   UNL     1       1.331   0.024  -2.397  0.00  0.00    +0.000 OA
ATOM     24  N   UNL     1       2.452   2.051  -2.215  0.00  0.00    +0.000 N 
ATOM     25  C   UNL     1       2.033   0.906  -2.883  0.00  0.00    +0.000 C 
ATOM     26  H   UNL     1       2.977   2.754  -2.728  0.00  0.00    +0.000 HD
BRANCH  25  27
ATOM     27  C   UNL     1       2.554   0.865  -4.308  0.00  0.00    +0.000 C 
BRANCH  27  28
ATOM     28  C   UNL     1       1.504   1.303  -5.326  0.00  0.00    +0.000 C 
BRANCH  28  32
ATOM     29  F   UNL     1       1.865   3.486  -4.486  0.00  0.00    +0.000 F 
ATOM     30  F   UNL     1       0.391   3.249  -6.081  0.00  0.00    +0.000 F 
ATOM     31  F   UNL     1      -0.055   2.540  -4.067  0.00  0.00    +0.000 F 
ATOM     32  C   UNL     1       0.925   2.659  -4.991  0.00  0.00    +0.000 C 
ENDBRANCH  28  32
ENDBRANCH  27  28
ENDBRANCH  25  27
ENDBRANCH  21  24
ENDBRANCH  19  21
ENDBRANCH   4  18
BRANCH   2  33
ATOM     33  C   UNL     1      -2.600  -1.718   2.443  0.00  0.00    +0.000 C 
BRANCH  33  34
ATOM     34  C   UNL     1      -3.560  -2.849   2.118  0.00  0.00    +0.000 C 
BRANCH  34  35
ATOM     35  O   UNL     1      -4.898  -2.383   2.244  0.00  0.00    +0.000 OA
ATOM     36  H   UNL     1      -4.934  -1.831   3.044  0.00  0.00    +0.000 HD
ENDBRANCH  34  35
ENDBRANCH  33  34
ENDBRANCH   2  33
TORSDOF 9
ENDMDL
MODEL 7
REMARK VINA RESULT:    -5.565      4.699      7.537
REMARK INTER + INTRA:         -11.934
REMARK INTER:                  -8.250
REMARK INTRA:                  -3.684
REMARK CONF_INDEPENDENT:        2.685
REMARK UNBOUND:                 3.684
REMARK  Name = 71236992
REMARK  10 active torsions:
REMARK  status: ('A' for Active; 'I' for Inactive)
REMARK    1  A    between atoms: O_6  and  C_25
REMARK    2  A    between atoms: N_8  and  C_18
REMARK    3  A    between atoms: N_9  and  C_12
REMARK    4  A    between atoms: N_11  and  C_20
REMARK    5  A    between atoms: C_18  and  C_25
REMARK    6  A    between atoms: C_20  and  C_21
REMARK    7  A    between atoms: C_20  and  C_27
REMARK    8  A    between atoms: C_30  and  C_31
REMARK    9  A    between atoms: C_31  and  C_32
REMARK   10  A    between atoms: C_32  and  C_33
REMARK                            x       y       z     vdW  Elec       q    Type
REMARK                         _______ _______ _______ _____ _____    ______ ____
ROOT
ATOM      1  O   UNL     1      -4.485   0.395  -3.204  0.00  0.00    +0.000 OA
ATOM      2  N   UNL     1      -4.625  -0.251  -0.979  0.00  0.00    +0.000 N 
ATOM      3  N   UNL     1      -4.895  -1.354   1.104  0.00  0.00    +0.000 NA
ATOM      4  C   UNL     1      -2.577  -0.741  -2.295  0.00  0.00    +0.000 C 
ATOM      5  C   UNL     1      -1.613   0.181  -1.596  0.00  0.00    +0.000 A 
ATOM      6  C   UNL     1      -1.717   0.295  -0.194  0.00  0.00    +0.000 A 
ATOM      7  C   UNL     1      -3.973  -0.139  -2.215  0.00  0.00    +0.000 C 
ATOM      8  C   UNL     1      -2.680  -0.521   0.587  0.00  0.00    +0.000 A 
ATOM      9  C   UNL     1      -4.036  -0.721   0.251  0.00  0.00    +0.000 A 
ATOM     10  C   UNL     1      -0.672   0.961  -2.293  0.00  0.00    +0.000 A 
ATOM     11  C   UNL     1      -0.867   1.212   0.461  0.00  0.00    +0.000 A 
ATOM     12  C   UNL     1      -2.241  -1.103   1.797  0.00  0.00    +0.000 A 
ATOM     13  C   UNL     1       0.164   1.848  -1.618  0.00  0.00    +0.000 A 
ATOM     14  C   UNL     1       0.065   1.977  -0.241  0.00  0.00    +0.000 A 
ATOM     15  C   UNL     1      -3.105  -1.789   2.638  0.00  0.00    +0.000 A 
ATOM     16  C   UNL     1      -4.421  -1.872   2.254  0.00  0.00    +0.000 A 
ENDROOT
BRANCH   4  18
ATOM     17  O   UNL     1      -2.502   1.192  -4.423  0.00  0.00    +0.000 OA
ATOM     18  N   UNL     1      -2.283  -0.996  -3.684  0.00  0.00    +0.000 N 
ATOM     19  C   UNL     1      -2.270   0.006  -4.645  0.00  0.00    +0.000 C 
ATOM     20  H   UNL     1      -2.096  -1.955  -3.966  0.00  0.00    +0.000 HD
BRANCH  19  21
ATOM     21  C   UNL     1      -1.886  -0.522  -6.021  0.00  0.00    +0.000 C 
ATOM     22  C   UNL     1      -1.422   0.608  -6.926  0.00  0.00    +0.000 C 
BRANCH  21  24
ATOM     23  O   UNL     1      -2.637  -3.274  -5.602  0.00  0.00    +0.000 OA
ATOM     24  N   UNL     1      -3.029  -1.200  -6.572  0.00  0.00    +0.000 N 
ATOM     25  C   UNL     1      -3.313  -2.536  -6.313  0.00  0.00    +0.000 C 
ATOM     26  H   UNL     1      -3.689  -0.657  -7.123  0.00  0.00    +0.000 HD
BRANCH  25  27
ATOM     27  C   UNL     1      -4.574  -2.991  -7.024  0.00  0.00    +0.000 C 
BRANCH  27  28
ATOM     28  C   UNL     1      -5.834  -2.726  -6.204  0.00  0.00    +0.000 C 
BRANCH  28  32
ATOM     29  F   UNL     1      -6.077  -0.654  -7.320  0.00  0.00    +0.000 F 
ATOM     30  F   UNL     1      -7.382  -1.039  -5.611  0.00  0.00    +0.000 F 
ATOM     31  F   UNL     1      -5.263  -0.629  -5.297  0.00  0.00    +0.000 F 
ATOM     32  C   UNL     1      -6.146  -1.250  -6.110  0.00  0.00    +0.000 C 
ENDBRANCH  28  32
ENDBRANCH  27  28
ENDBRANCH  25  27
ENDBRANCH  21  24
ENDBRANCH  19  21
ENDBRANCH   4  18
BRANCH   2  33
ATOM     33  C   UNL     1      -6.062   0.030  -0.926  0.00  0.00    +0.000 C 
BRANCH  33  34
ATOM     34  C   UNL     1      -6.373   1.176   0.019  0.00  0.00    +0.000 C 
BRANCH  34  35
ATOM     35  O   UNL     1      -6.420   0.688   1.354  0.00  0.00    +0.000 OA
ATOM     36  H   UNL     1      -6.758  -0.223   1.313  0.00  0.00    +0.000 HD
ENDBRANCH  34  35
ENDBRANCH  33  34
ENDBRANCH   2  33
TORSDOF 9
ENDMDL
MODEL 8
REMARK VINA RESULT:    -5.367      3.169      5.320
REMARK INTER + INTRA:         -12.422
REMARK INTER:                  -8.052
REMARK INTRA:                  -4.370
REMARK CONF_INDEPENDENT:        2.685
REMARK UNBOUND:                 4.370
REMARK  Name = 71236992
REMARK  10 active torsions:
REMARK  status: ('A' for Active; 'I' for Inactive)
REMARK    1  A    between atoms: O_6  and  C_25
REMARK    2  A    between atoms: N_8  and  C_18
REMARK    3  A    between atoms: N_9  and  C_12
REMARK    4  A    between atoms: N_11  and  C_20
REMARK    5  A    between atoms: C_18  and  C_25
REMARK    6  A    between atoms: C_20  and  C_21
REMARK    7  A    between atoms: C_20  and  C_27
REMARK    8  A    between atoms: C_30  and  C_31
REMARK    9  A    between atoms: C_31  and  C_32
REMARK   10  A    between atoms: C_32  and  C_33
REMARK                            x       y       z     vdW  Elec       q    Type
REMARK                         _______ _______ _______ _____ _____    ______ ____
ROOT
ATOM      1  O   UNL     1      -4.408   1.588  -2.447  0.00  0.00    +0.000 OA
ATOM      2  N   UNL     1      -4.560   0.211  -0.585  0.00  0.00    +0.000 N 
ATOM      3  N   UNL     1      -4.792  -1.556   0.981  0.00  0.00    +0.000 NA
ATOM      4  C   UNL     1      -2.431   0.365  -1.854  0.00  0.00    +0.000 C 
ATOM      5  C   UNL     1      -1.585   1.065  -0.824  0.00  0.00    +0.000 A 
ATOM      6  C   UNL     1      -1.747   0.684   0.524  0.00  0.00    +0.000 A 
ATOM      7  C   UNL     1      -3.881   0.790  -1.666  0.00  0.00    +0.000 C 
ATOM      8  C   UNL     1      -2.652  -0.424   0.920  0.00  0.00    +0.000 A 
ATOM      9  C   UNL     1      -3.970  -0.603   0.449  0.00  0.00    +0.000 A 
ATOM     10  C   UNL     1      -0.700   2.109  -1.155  0.00  0.00    +0.000 A 
ATOM     11  C   UNL     1      -1.011   1.386   1.504  0.00  0.00    +0.000 A 
ATOM     12  C   UNL     1      -2.199  -1.348   1.888  0.00  0.00    +0.000 A 
ATOM     13  C   UNL     1       0.024   2.774  -0.168  0.00  0.00    +0.000 A 
ATOM     14  C   UNL     1      -0.134   2.416   1.162  0.00  0.00    +0.000 A 
ATOM     15  C   UNL     1      -3.022  -2.346   2.391  0.00  0.00    +0.000 A 
ATOM     16  C   UNL     1      -4.310  -2.397   1.917  0.00  0.00    +0.000 A 
ENDROOT
BRANCH   4  18
ATOM     17  O   UNL     1      -3.397  -1.020  -4.182  0.00  0.00    +0.000 OA
ATOM     18  N   UNL     1      -2.068   0.624  -3.226  0.00  0.00    +0.000 N 
ATOM     19  C   UNL     1      -2.589  -0.101  -4.290  0.00  0.00    +0.000 C 
ATOM     20  H   UNL     1      -1.389   1.358  -3.412  0.00  0.00    +0.000 HD
BRANCH  19  21
ATOM     21  C   UNL     1      -2.079   0.404  -5.633  0.00  0.00    +0.000 C 
ATOM     22  C   UNL     1      -2.223  -0.665  -6.705  0.00  0.00    +0.000 C 
BRANCH  21  24
ATOM     23  O   UNL     1      -1.105   2.993  -4.819  0.00  0.00    +0.000 OA
ATOM     24  N   UNL     1      -0.705   0.798  -5.468  0.00  0.00    +0.000 N 
ATOM     25  C   UNL     1      -0.329   2.076  -5.069  0.00  0.00    +0.000 C 
ATOM     26  H   UNL     1       0.014   0.090  -5.587  0.00  0.00    +0.000 HD
BRANCH  25  27
ATOM     27  C   UNL     1       1.180   2.215  -4.979  0.00  0.00    +0.000 C 
BRANCH  27  28
ATOM     28  C   UNL     1       1.678   2.242  -3.537  0.00  0.00    +0.000 C 
BRANCH  28  32
ATOM     29  F   UNL     1       2.736   0.170  -3.973  0.00  0.00    +0.000 F 
ATOM     30  F   UNL     1       2.800   0.924  -1.923  0.00  0.00    +0.000 F 
ATOM     31  F   UNL     1       0.933   0.152  -2.745  0.00  0.00    +0.000 F 
ATOM     32  C   UNL     1       2.046   0.861  -3.040  0.00  0.00    +0.000 C 
ENDBRANCH  28  32
ENDBRANCH  27  28
ENDBRANCH  25  27
ENDBRANCH  21  24
ENDBRANCH  19  21
ENDBRANCH   4  18
BRANCH   2  33
ATOM     33  C   UNL     1      -6.019   0.342  -0.533  0.00  0.00    +0.000 C 
BRANCH  33  34
ATOM     34  C   UNL     1      -6.463   1.157   0.668  0.00  0.00    +0.000 C 
BRANCH  34  35
ATOM     35  O   UNL     1      -6.562   0.307   1.805  0.00  0.00    +0.000 OA
ATOM     36  H   UNL     1      -6.662  -0.601   1.473  0.00  0.00    +0.000 HD
ENDBRANCH  34  35
ENDBRANCH  33  34
ENDBRANCH   2  33
TORSDOF 9
ENDMDL
MODEL 9
REMARK VINA RESULT:    -5.040      2.485      3.655
REMARK INTER + INTRA:         -12.867
REMARK INTER:                  -7.725
REMARK INTRA:                  -5.142
REMARK CONF_INDEPENDENT:        2.685
REMARK UNBOUND:                 5.142
REMARK  Name = 71236992
REMARK  10 active torsions:
REMARK  status: ('A' for Active; 'I' for Inactive)
REMARK    1  A    between atoms: O_6  and  C_25
REMARK    2  A    between atoms: N_8  and  C_18
REMARK    3  A    between atoms: N_9  and  C_12
REMARK    4  A    between atoms: N_11  and  C_20
REMARK    5  A    between atoms: C_18  and  C_25
REMARK    6  A    between atoms: C_20  and  C_21
REMARK    7  A    between atoms: C_20  and  C_27
REMARK    8  A    between atoms: C_30  and  C_31
REMARK    9  A    between atoms: C_31  and  C_32
REMARK   10  A    between atoms: C_32  and  C_33
REMARK                            x       y       z     vdW  Elec       q    Type
REMARK                         _______ _______ _______ _____ _____    ______ ____
ROOT
ATOM      1  O   UNL     1      -2.244  -0.603  -0.036  0.00  0.00    +0.000 OA
ATOM      2  N   UNL     1      -4.271  -0.339   1.063  0.00  0.00    +0.000 N 
ATOM      3  N   UNL     1      -6.071  -0.147   2.596  0.00  0.00    +0.000 NA
ATOM      4  C   UNL     1      -2.689   1.567   0.885  0.00  0.00    +0.000 C 
ATOM      5  C   UNL     1      -3.481   2.454  -0.039  0.00  0.00    +0.000 A 
ATOM      6  C   UNL     1      -4.876   2.521   0.156  0.00  0.00    +0.000 A 
ATOM      7  C   UNL     1      -3.035   0.115   0.583  0.00  0.00    +0.000 C 
ATOM      8  C   UNL     1      -5.544   1.816   1.278  0.00  0.00    +0.000 A 
ATOM      9  C   UNL     1      -5.303   0.477   1.654  0.00  0.00    +0.000 A 
ATOM     10  C   UNL     1      -2.889   3.155  -1.105  0.00  0.00    +0.000 A 
ATOM     11  C   UNL     1      -5.635   3.292  -0.751  0.00  0.00    +0.000 A 
ATOM     12  C   UNL     1      -6.546   2.501   2.001  0.00  0.00    +0.000 A 
ATOM     13  C   UNL     1      -3.661   3.921  -1.976  0.00  0.00    +0.000 A 
ATOM     14  C   UNL     1      -5.035   3.986  -1.803  0.00  0.00    +0.000 A 
ATOM     15  C   UNL     1      -7.291   1.878   2.992  0.00  0.00    +0.000 A 
ATOM     16  C   UNL     1      -7.026   0.554   3.239  0.00  0.00    +0.000 A 
ENDROOT
BRANCH   4  18
ATOM     17  O   UNL     1      -1.160   3.948   1.396  0.00  0.00    +0.000 OA
ATOM     18  N   UNL     1      -1.257   1.709   0.795  0.00  0.00    +0.000 N 
ATOM     19  C   UNL     1      -0.603   2.905   1.061  0.00  0.00    +0.000 C 
ATOM     20  H   UNL     1      -0.711   0.901   0.507  0.00  0.00    +0.000 HD
BRANCH  19  21
ATOM     21  C   UNL     1       0.909   2.773   0.939  0.00  0.00    +0.000 C 
ATOM     22  C   UNL     1       1.606   4.032   1.432  0.00  0.00    +0.000 C 
BRANCH  21  24
ATOM     23  O   UNL     1       0.767   0.230  -0.411  0.00  0.00    +0.000 OA
ATOM     24  N   UNL     1       1.222   2.508  -0.440  0.00  0.00    +0.000 N 
ATOM     25  C   UNL     1       1.123   1.243  -1.007  0.00  0.00    +0.000 C 
ATOM     26  H   UNL     1       1.464   3.295  -1.037  0.00  0.00    +0.000 HD
BRANCH  25  27
ATOM     27  C   UNL     1       1.516   1.251  -2.473  0.00  0.00    +0.000 C 
BRANCH  27  28
ATOM     28  C   UNL     1       0.503   0.522  -3.353  0.00  0.00    +0.000 C 
BRANCH  28  32
ATOM     29  F   UNL     1      -1.637   0.891  -4.292  0.00  0.00    +0.000 F 
ATOM     30  F   UNL     1      -1.533   0.476  -2.150  0.00  0.00    +0.000 F 
ATOM     31  F   UNL     1      -0.854   2.399  -2.924  0.00  0.00    +0.000 F 
ATOM     32  C   UNL     1      -0.895   1.072  -3.179  0.00  0.00    +0.000 C 
ENDBRANCH  28  32
ENDBRANCH  27  28
ENDBRANCH  25  27
ENDBRANCH  21  24
ENDBRANCH  19  21
ENDBRANCH   4  18
BRANCH   2  33
ATOM     33  C   UNL     1      -4.523  -1.782   1.071  0.00  0.00    +0.000 C 
BRANCH  33  34
ATOM     34  C   UNL     1      -3.867  -2.457   2.263  0.00  0.00    +0.000 C 
BRANCH  34  35
ATOM     35  O   UNL     1      -2.705  -1.728   2.638  0.00  0.00    +0.000 OA
ATOM     36  H   UNL     1      -2.158  -1.633   1.840  0.00  0.00    +0.000 HD
ENDBRANCH  34  35
ENDBRANCH  33  34
ENDBRANCH   2  33
TORSDOF 9
ENDMDL
