REMARK  Name = 91443
REMARK  11 active torsions:
REMARK  status: ('A' for Active; 'I' for Inactive)
REMARK    1  A    between atoms: O_3  and  C_31
REMARK    2  A    between atoms: OE1_5  and  CD_32
REMARK    3  A    between atoms: N_9  and  C_16
REMARK    4  A    between atoms: N_9  and  C_19
REMARK    5  A    between atoms: N_12  and  CA_22
REMARK    6  A    between atoms: C_14  and  C_16
REMARK    7  A    between atoms: CA_22  and  CB_23
REMARK    8  A    between atoms: CA_22  and  C_31
REMARK    9  A    between atoms: CB_23  and  CG_29
REMARK   10  A    between atoms: C_26  and  C_30
REMARK   11  A    between atoms: CG_29  and  CD_32
REMARK                            x       y       z     vdW  Elec       q    Type
REMARK                         _______ _______ _______ _____ _____    ______ ____
ROOT
ATOM      1  C   UNL     1      -0.643   1.855   0.717  0.00  0.00    +0.000 A 
ATOM      2  C   UNL     1       0.071   1.712  -0.472  0.00  0.00    +0.000 A 
ATOM      3  C   UNL     1       0.032   1.876   1.938  0.00  0.00    +0.000 A 
ATOM      4  C   UNL     1       2.135   1.610   0.779  0.00  0.00    +0.000 A 
ATOM      5  C   UNL     1       1.460   1.590  -0.441  0.00  0.00    +0.000 A 
ATOM      6  C   UNL     1       1.421   1.753   1.969  0.00  0.00    +0.000 A 
ENDROOT
BRANCH   4   9
ATOM      7  O   UNL     1       4.238   1.958   1.756  0.00  0.00    +0.000 OA
ATOM      8  N   UNL     1       4.184   0.790  -0.246  0.00  0.00    +0.000 N 
ATOM      9  C   ACE A   0       3.584   1.483   0.812  0.00  0.00    +0.000 C 
ATOM     10  H   UNL     1       3.604   0.349  -0.952  0.00  0.00    +0.000 HD
BRANCH   8  11
ATOM     11  CA  UNL     1       5.608   0.560  -0.344  0.00  0.00    +0.000 C 
BRANCH  11  13
ATOM     12  OXT UNL     1       5.187   0.699  -2.739  0.00  0.00    +0.000 OA
ATOM     13  C   UNL     1       5.981   0.619  -1.811  0.00  0.00    +0.000 C 
BRANCH  13  14
ATOM     14  O   UNL     1       7.328   0.612  -1.992  0.00  0.00    +0.000 OA
ATOM     15  H   UNL     1       7.569   0.666  -2.941  0.00  0.00    +0.000 HD
ENDBRANCH  13  14
ENDBRANCH  11  13
BRANCH  11  16
ATOM     16  CB  UNL     1       6.049  -0.732   0.356  0.00  0.00    +0.000 C 
BRANCH  16  17
ATOM     17  CG  UNL     1       5.464  -2.032  -0.211  0.00  0.00    +0.000 C 
BRANCH  17  19
ATOM     18  OE2 UNL     1       6.673  -3.297   1.484  0.00  0.00    +0.000 OA
ATOM     19  CD  UNL     1       5.920  -3.276   0.521  0.00  0.00    +0.000 C 
BRANCH  19  20
ATOM     20  OE1 UNL     1       5.418  -4.403  -0.049  0.00  0.00    +0.000 OA
ATOM     21  HE1 UNL     1       5.726  -5.213   0.411  0.00  0.00    +0.000 HD
ENDBRANCH  19  20
ENDBRANCH  17  19
ENDBRANCH  16  17
ENDBRANCH  11  16
ENDBRANCH   8  11
ENDBRANCH   4   9
BRANCH   1  22
ATOM     22  N   UNL     1      -2.026   1.978   0.686  0.00  0.00    +0.000 N 
ATOM     23  H   UNL     1      -2.501   2.100   1.574  0.00  0.00    +0.000 HD
BRANCH  22  24
ATOM     24  C   UNL     1      -2.805   1.968  -0.523  0.00  0.00    +0.000 C 
BRANCH  24  31
ATOM     25  O   UNL     1      -5.066  -1.113   2.418  0.00  0.00    +0.000 OA
ATOM     26  N   UNL     1      -4.686   1.043   0.720  0.00  0.00    +0.000 N 
ATOM     27  N   UNL     1      -5.398   0.735  -1.903  0.00  0.00    +0.000 N 
ATOM     28  N   UNL     1      -6.000  -1.573  -1.420  0.00  0.00    +0.000 N 
ATOM     29  N   UNL     1      -5.836  -2.491   0.749  0.00  0.00    +0.000 NA
ATOM     30  N   UNL     1      -6.608  -3.764  -1.072  0.00  0.00    +0.000 N 
ATOM     31  C   UNL     1      -4.287   2.119  -0.182  0.00  0.00    +0.000 C 
ATOM     32  C   UNL     1      -5.171   2.099  -1.446  0.00  0.00    +0.000 C 
ATOM     33  C   UNL     1      -5.198  -0.152   0.262  0.00  0.00    +0.000 A 
ATOM     34  C   UNL     1      -5.537  -0.337  -1.034  0.00  0.00    +0.000 A 
ATOM     35  C   UNL     1      -5.359  -1.284   1.237  0.00  0.00    +0.000 A 
ATOM     36  C   UNL     1      -6.133  -2.603  -0.520  0.00  0.00    +0.000 A 
ATOM     37  H   UNL     1      -4.424   1.095   1.699  0.00  0.00    +0.000 HD
ATOM     38  H   UNL     1      -5.683   0.579  -2.864  0.00  0.00    +0.000 HD
ATOM     39  H   UNL     1      -6.243  -1.688  -2.398  0.00  0.00    +0.000 HD
ATOM     40  H   UNL     1      -6.831  -3.827  -2.059  0.00  0.00    +0.000 HD
ATOM     41  H   UNL     1      -6.749  -4.594  -0.508  0.00  0.00    +0.000 HD
ENDBRANCH  24  31
ENDBRANCH  22  24
ENDBRANCH   1  22
TORSDOF 11
