REMARK  Name = 
REMARK  27 active torsions:
REMARK  status: ('A' for Active; 'I' for Inactive)
REMARK    1  A    between atoms: C_1  and  S_2
REMARK    2  A    between atoms: S_2  and  C_3
REMARK    3  A    between atoms: C_3  and  C_4
REMARK    4  A    between atoms: C_4  and  C_5
REMARK    5  A    between atoms: C_5  and  N_6
REMARK    6  A    between atoms: C_5  and  C_33
REMARK    7  A    between atoms: C_7  and  C_9
REMARK    8  A    between atoms: C_9  and  C_10
REMARK    9  A    between atoms: C_9  and  N_20
REMARK   10  A    between atoms: C_10  and  C_11
REMARK   11  A    between atoms: C_21  and  C_23
REMARK   12  A    between atoms: C_23  and  C_24
REMARK   13  A    between atoms: C_24  and  N_25
REMARK   14  A    between atoms: C_26  and  O_28
REMARK   15  A    between atoms: O_28  and  C_29
REMARK   16  A    between atoms: C_29  and  C_30
REMARK   17  A    between atoms: C_29  and  C_31
REMARK   18  A    between atoms: C_29  and  C_32
REMARK   19  A    between atoms: N_35  and  C_36
REMARK   20  A    between atoms: C_36  and  C_37
REMARK   21  A    between atoms: C_36  and  C_41
REMARK   22  A    between atoms: C_37  and  C_38
REMARK   23  A    between atoms: C_38  and  O_40
REMARK   24  A    between atoms: N_43  and  C_44
REMARK   25  A    between atoms: C_44  and  C_45
REMARK   26  A    between atoms: C_44  and  C_52
REMARK   27  A    between atoms: C_45  and  C_46
REMARK                            x       y       z     vdW  Elec       q    Type
REMARK                         _______ _______ _______ _____ _____    ______ ____
ROOT
ATOM      1  C   UNL     1      -0.305   1.144   0.576  0.00  0.00    +0.000 C 
ENDROOT
BRANCH   1   2
ATOM      2  N   UNL     1       0.724   0.349  -0.305  0.00  0.00    +0.000 N 
ATOM      3  C   UNL     1       2.068   0.713  -0.189  0.00  0.00    +0.000 C 
ATOM      4  O   UNL     1       2.219   1.974  -0.302  0.00  0.00    +0.000 OA
ATOM      5  H   UNL     1       0.436  -0.372  -0.910  0.00  0.00    +0.000 HD
BRANCH   3   6
ATOM      6  C   UNL     1       3.093   0.068  -1.260  0.00  0.00    +0.000 C 
BRANCH   6   7
ATOM      7  N   UNL     1       3.927  -0.653  -0.126  0.00  0.00    +0.000 N 
ATOM      8  C   UNL     1       4.561   0.185   0.803  0.00  0.00    +0.000 C 
ATOM      9  O   UNL     1       4.903   1.335   0.383  0.00  0.00    +0.000 OA
ATOM     10  H   UNL     1       3.997  -1.633  -0.075  0.00  0.00    +0.000 HD
BRANCH   8  11
ATOM     11  C   UNL     1       5.609  -0.484   1.642  0.00  0.00    +0.000 C 
BRANCH  11  12
ATOM     12  C   UNL     1       6.500  -1.206   0.635  0.00  0.00    +0.000 C 
BRANCH  12  13
ATOM     13  N   UNL     1       6.866  -0.191  -0.350  0.00  0.00    +0.000 N 
ATOM     14  C   UNL     1       8.014   0.602  -0.145  0.00  0.00    +0.000 C 
ATOM     15  O   UNL     1       9.004   0.055   0.406  0.00  0.00    +0.000 OA
ATOM     16  H   UNL     1       6.314  -0.062  -1.154  0.00  0.00    +0.000 HD
BRANCH  14  17
ATOM     17  O   UNL     1       8.111   1.949  -0.414  0.00  0.00    +0.000 OA
BRANCH  17  18
ATOM     18  C   UNL     1       9.028   2.823   0.233  0.00  0.00    +0.000 C 
ATOM     19  C   UNL     1       8.367   3.286   1.521  0.00  0.00    +0.000 C 
ATOM     20  C   UNL     1       9.328   4.017  -0.627  0.00  0.00    +0.000 C 
ATOM     21  C   UNL     1      10.294   2.051   0.548  0.00  0.00    +0.000 C 
ENDBRANCH  17  18
ENDBRANCH  14  17
ENDBRANCH  12  13
ENDBRANCH  11  12
ENDBRANCH   8  11
ENDBRANCH   6   7
BRANCH   6  22
ATOM     22  C   UNL     1       2.166  -1.245  -1.614  0.00  0.00    +0.000 C 
BRANCH  22  23
ATOM     23  C   UNL     1       2.230  -2.235  -0.573  0.00  0.00    +0.000 A 
ATOM     24  C   UNL     1       1.264  -2.742   0.293  0.00  0.00    +0.000 A 
ATOM     25  N   UNL     1       1.861  -3.677   1.067  0.00  0.00    +0.000 N 
ATOM     26  C   UNL     1       2.949  -4.136   0.405  0.00  0.00    +0.000 A 
ATOM     27  C   UNL     1       3.513  -5.398   0.452  0.00  0.00    +0.000 A 
ATOM     28  C   UNL     1       4.448  -5.726  -0.517  0.00  0.00    +0.000 A 
ATOM     29  C   UNL     1       4.658  -4.920  -1.623  0.00  0.00    +0.000 A 
ATOM     30  C   UNL     1       4.043  -3.694  -1.629  0.00  0.00    +0.000 A 
ATOM     31  C   UNL     1       3.160  -3.273  -0.639  0.00  0.00    +0.000 A 
ATOM     32  H   UNL     1       1.558  -3.972   1.957  0.00  0.00    +0.000 HD
ENDBRANCH  22  23
ENDBRANCH   6  22
ENDBRANCH   3   6
ENDBRANCH   1   2
BRANCH   1  33
ATOM     33  C   UNL     1      -1.519   0.246  -0.005  0.00  0.00    +0.000 C 
ATOM     34  O   UNL     1      -1.373  -0.911   0.502  0.00  0.00    +0.000 OA
ATOM     35  N   UNL     1      -2.770   0.831   0.244  0.00  0.00    +0.000 N 
ATOM     36  H   UNL     1      -2.881   1.732   0.625  0.00  0.00    +0.000 HD
BRANCH  35  37
ATOM     37  C   UNL     1      -3.982  -0.102  -0.148  0.00  0.00    +0.000 C 
BRANCH  37  38
ATOM     38  C   UNL     1      -4.923   0.489   1.025  0.00  0.00    +0.000 C 
ATOM     39  O   UNL     1      -4.460   0.570   2.151  0.00  0.00    +0.000 OA
ATOM     40  N   UNL     1      -6.264   0.685   0.646  0.00  0.00    +0.000 N 
ATOM     41  H   UNL     1      -6.602   0.683  -0.278  0.00  0.00    +0.000 HD
BRANCH  40  42
ATOM     42  C   UNL     1      -7.141   0.909   1.939  0.00  0.00    +0.000 C 
BRANCH  42  43
ATOM     43  C   UNL     1      -8.436   0.182   1.286  0.00  0.00    +0.000 C 
ATOM     44  N   UNL     1      -8.292  -1.248   1.404  0.00  0.00    +0.000 N 
ATOM     45  O   UNL     1      -9.516   0.582   1.833  0.00  0.00    +0.000 OA
ATOM     46  H   UNL     1      -7.502  -1.696   1.025  0.00  0.00    +0.000 HD
ATOM     47  H   UNL     1      -8.985  -1.776   1.863  0.00  0.00    +0.000 HD
ENDBRANCH  42  43
BRANCH  42  48
ATOM     48  C   UNL     1      -7.660   2.408   1.513  0.00  0.00    +0.000 C 
BRANCH  48  49
ATOM     49  C   UNL     1      -7.574   2.598   0.098  0.00  0.00    +0.000 A 
ATOM     50  C   UNL     1      -7.322   3.905  -0.310  0.00  0.00    +0.000 A 
ATOM     51  C   UNL     1      -7.498   4.299  -1.618  0.00  0.00    +0.000 A 
ATOM     52  C   UNL     1      -7.691   3.337  -2.599  0.00  0.00    +0.000 A 
ATOM     53  C   UNL     1      -7.663   2.010  -2.181  0.00  0.00    +0.000 A 
ATOM     54  C   UNL     1      -8.122   1.790  -0.889  0.00  0.00    +0.000 A 
ENDBRANCH  48  49
ENDBRANCH  42  48
ENDBRANCH  40  42
ENDBRANCH  37  38
BRANCH  37  55
ATOM     55  C   UNL     1      -3.444  -1.358   0.777  0.00  0.00    +0.000 C 
BRANCH  55  56
ATOM     56  C   UNL     1      -4.622  -1.969   1.377  0.00  0.00    +0.000 C 
ATOM     57  O   UNL     1      -4.536  -2.356   2.580  0.00  0.00    +0.000 OA
BRANCH  56  58
ATOM     58  O   UNL     1      -5.489  -2.679   0.550  0.00  0.00    +0.000 OA
ATOM     59  H   UNL     1      -5.587  -2.431  -0.349  0.00  0.00    +0.000 HD
ENDBRANCH  56  58
ENDBRANCH  55  56
ENDBRANCH  37  55
ENDBRANCH  35  37
ENDBRANCH   1  33
BRANCH   1  60
ATOM     60  C   UNL     1      -0.499   2.288  -0.579  0.00  0.00    +0.000 C 
BRANCH  60  61
ATOM     61  C   UNL     1      -0.675   1.854  -1.876  0.00  0.00    +0.000 C 
BRANCH  61  63
ATOM     62  C   UNL     1      -0.519   0.388  -2.671  0.00  0.00    +0.000 C 
ATOM     63  S   UNL     1      -0.612   0.283  -2.599  0.00  0.00    +0.000 S 
ENDBRANCH  61  63
ENDBRANCH  60  61
ENDBRANCH   1  60
TORSDOF 23
