REMARK  Name = 107807
REMARK  13 active torsions:
REMARK  status: ('A' for Active; 'I' for Inactive)
REMARK    1  A    between atoms: O_2  and  C_17
REMARK    2  A    between atoms: O_4  and  C_22
REMARK    3  A    between atoms: O_4  and  C_25
REMARK    4  A    between atoms: N_7  and  CA_18
REMARK    5  A    between atoms: N_7  and  C_20
REMARK    6  A    between atoms: CA_11  and  C_17
REMARK    7  A    between atoms: C_16  and  CA_18
REMARK    8  A    between atoms: CA_18  and  CB_19
REMARK    9  A    between atoms: C_20  and  C_21
REMARK   10  A    between atoms: C_20  and  C_22
REMARK   11  A    between atoms: C_21  and  C_23
REMARK   12  A    between atoms: C_23  and  C_24
REMARK   13  A    between atoms: C_25  and  C_26
REMARK                            x       y       z     vdW  Elec       q    Type
REMARK                         _______ _______ _______ _____ _____    ______ ____
ROOT
ATOM      1  O   ALA A   1      -0.569   2.370   0.936  0.00  0.00    +0.000 OA
ATOM      2  N   ALA A   1      -1.618   0.325   0.666  0.00  0.00    +0.000 N 
ATOM      3  C   ALA A   1      -3.908  -0.163   0.490  0.00  0.00    +0.000 C 
ATOM      4  C   ALA A   1      -2.852   0.878   0.102  0.00  0.00    +0.000 C 
ATOM      5  C   ALA A   1      -3.142  -1.484   0.371  0.00  0.00    +0.000 C 
ATOM      6  CA  ALA A   1      -1.731  -1.126   0.850  0.00  0.00    +0.000 C 
ATOM      7  C   ALA A   1      -5.200  -0.095  -0.318  0.00  0.00    +0.000 C 
ATOM      8  C   ALA A   1      -2.710   1.096  -1.409  0.00  0.00    +0.000 C 
ATOM      9  C   ALA A   1      -4.982   0.106  -1.814  0.00  0.00    +0.000 C 
ATOM     10  C   ALA A   1      -4.060   1.289  -2.087  0.00  0.00    +0.000 C 
ATOM     11  C   ALA A   1      -0.603   1.152   1.127  0.00  0.00    +0.000 C 
ENDROOT
BRANCH   6  13
ATOM     12  OXT ALA A   1      -0.294  -1.371  -1.076  0.00  0.00    +0.000 OA
ATOM     13  C   ALA A   1      -0.720  -1.809  -0.018  0.00  0.00    +0.000 C 
BRANCH  13  14
ATOM     14  O   ALA A   1      -0.339  -2.989   0.530  0.00  0.00    +0.000 OA
ATOM     15  H   ALA A   1       0.327  -3.450  -0.024  0.00  0.00    +0.000 HD
ENDBRANCH  13  14
ENDBRANCH   6  13
BRANCH  11  16
ATOM     16  CA  ALA A   1       0.512   0.481   1.888  0.00  0.00    +0.000 C 
ATOM     17  CB  ALA A   1       0.201   0.481   3.371  0.00  0.00    +0.000 C 
BRANCH  16  18
ATOM     18  N   ALA A   1       1.724   1.232   1.609  0.00  0.00    +0.000 NA
ATOM     19  H   ALA A   1       2.423   1.095   2.339  0.00  0.00    +0.000 HD
BRANCH  18  20
ATOM     20  C   UNK A   0       2.279   0.870   0.310  0.00  0.00    +0.000 C 
BRANCH  20  22
ATOM     21  O   UNK A   0       3.692  -0.750   1.466  0.00  0.00    +0.000 OA
ATOM     22  C   UNK A   0       3.061  -0.423   0.469  0.00  0.00    +0.000 C 
BRANCH  22  23
ATOM     23  O   UNK A   0       2.939  -1.167  -0.671  0.00  0.00    +0.000 OA
BRANCH  23  24
ATOM     24  C   UNK A   0       3.619  -2.426  -0.663  0.00  0.00    +0.000 C 
ATOM     25  C   UNK A   0       3.386  -3.121  -1.987  0.00  0.00    +0.000 C 
ENDBRANCH  23  24
ENDBRANCH  22  23
ENDBRANCH  20  22
BRANCH  20  26
ATOM     26  C   UNK A   0       3.143   2.001  -0.268  0.00  0.00    +0.000 C 
BRANCH  26  27
ATOM     27  C   UNK A   0       3.687   1.729  -1.676  0.00  0.00    +0.000 C 
ATOM     28  C   UNK A   0       4.485   2.915  -2.197  0.00  0.00    +0.000 C 
ENDBRANCH  26  27
ENDBRANCH  20  26
ENDBRANCH  18  20
ENDBRANCH  16  18
ENDBRANCH  11  16
TORSDOF 10
