REMARK  Name = 444425
REMARK  16 active torsions:
REMARK  status: ('A' for Active; 'I' for Inactive)
REMARK    1  A    between atoms: O_2  and  C_16
REMARK    2  A    between atoms: O_4  and  C_26
REMARK    3  A    between atoms: O_4  and  C_27
REMARK    4  A    between atoms: N_6  and  CA_11
REMARK    5  A    between atoms: N_7  and  CA_9
REMARK    6  A    between atoms: N_8  and  CA_19
REMARK    7  A    between atoms: CA_9  and  CB_10
REMARK    8  A    between atoms: CA_9  and  C_12
REMARK    9  A    between atoms: CB_10  and  CG1_14
REMARK   10  A    between atoms: CB_10  and  CG2_15
REMARK   11  A    between atoms: CA_11  and  CB_13
REMARK   12  A    between atoms: CA_11  and  C_16
REMARK   13  A    between atoms: CB_13  and  CG_18
REMARK   14  A    between atoms: C_17  and  CA_19
REMARK   15  A    between atoms: CA_19  and  CB_20
REMARK   16  A    between atoms: C_27  and  C_28
REMARK                            x       y       z     vdW  Elec       q    Type
REMARK                         _______ _______ _______ _____ _____    ______ ____
ROOT
ATOM      1  CA  UNL     1       2.125  -1.540   0.616  0.00  0.00    +0.000 C 
ENDROOT
BRANCH   1   4
ATOM      2  O   UNL     1       3.177  -0.809  -1.444  0.00  0.00    +0.000 OA
ATOM      3  N   UNL     1       4.260  -0.400   0.568  0.00  0.00    +0.000 N 
ATOM      4  C   UNL     1       3.231  -0.897  -0.219  0.00  0.00    +0.000 C 
ATOM      5  H   UNL     1       4.204  -0.489   1.578  0.00  0.00    +0.000 HD
BRANCH   3   6
ATOM      6  CA  UNL     1       5.405   0.290   0.021  0.00  0.00    +0.000 C 
BRANCH   6   7
ATOM      7  CB  UNL     1       5.503   1.718   0.583  0.00  0.00    +0.000 C 
BRANCH   7   8
ATOM      8  CG  UNL     1       4.262   2.540   0.327  0.00  0.00    +0.000 A 
ATOM      9  CD1 UNL     1       3.222   2.540   1.257  0.00  0.00    +0.000 A 
ATOM     10  CD2 UNL     1       4.156   3.299  -0.838  0.00  0.00    +0.000 A 
ATOM     11  CE1 UNL     1       2.076   3.299   1.021  0.00  0.00    +0.000 A 
ATOM     12  CE2 UNL     1       3.010   4.059  -1.074  0.00  0.00    +0.000 A 
ATOM     13  CZ  UNL     1       1.970   4.059  -0.145  0.00  0.00    +0.000 A 
ENDBRANCH   7   8
ENDBRANCH   6   7
BRANCH   6  14
ATOM     14  C   UNL     1       6.679  -0.498   0.332  0.00  0.00    +0.000 C 
BRANCH  14  15
ATOM     15  O   UNL     1       6.761  -1.625  -0.533  0.00  0.00    +0.000 OA
ATOM     16  H   UNL     1       7.581  -2.097  -0.309  0.00  0.00    +0.000 HD
ENDBRANCH  14  15
ENDBRANCH   6  14
ENDBRANCH   3   6
ENDBRANCH   1   4
BRANCH   1  18
ATOM     17  O   UNL     1       0.006   0.228  -0.196  0.00  0.00    +0.000 OA
ATOM     18  N   UNL     1       1.028  -1.855  -0.263  0.00  0.00    +0.000 N 
ATOM     19  C   UNL     1       0.046  -0.932  -0.601  0.00  0.00    +0.000 C 
ATOM     20  H   UNL     1       1.020  -2.762  -0.721  0.00  0.00    +0.000 HD
BRANCH  19  21
ATOM     21  CA  UNL     1      -0.969  -1.505  -1.581  0.00  0.00    +0.000 C 
ATOM     22  CB  UNL     1      -0.534  -1.263  -3.018  0.00  0.00    +0.000 C 
BRANCH  21  24
ATOM     23  O   UNL     1      -2.995  -2.377   0.309  0.00  0.00    +0.000 OA
ATOM     24  N   UNL     1      -2.244  -0.893  -1.310  0.00  0.00    +0.000 N 
ATOM     25  C   ACE A   0      -3.151  -1.379  -0.388  0.00  0.00    +0.000 C 
ATOM     26  H   UNL     1      -2.475  -0.026  -1.786  0.00  0.00    +0.000 HD
BRANCH  25  27
ATOM     27  O   UNL     1      -4.260  -0.581  -0.363  0.00  0.00    +0.000 OA
BRANCH  27  28
ATOM     28  C   UNL     1      -5.288  -0.969   0.555  0.00  0.00    +0.000 C 
BRANCH  28  29
ATOM     29  C   UNL     1      -6.425   0.005   0.458  0.00  0.00    +0.000 A 
ATOM     30  C   UNL     1      -6.444   1.138   1.271  0.00  0.00    +0.000 A 
ATOM     31  C   UNL     1      -7.463  -0.221  -0.447  0.00  0.00    +0.000 A 
ATOM     32  C   UNL     1      -7.501   2.044   1.181  0.00  0.00    +0.000 A 
ATOM     33  C   UNL     1      -8.520   0.685  -0.537  0.00  0.00    +0.000 A 
ATOM     34  C   UNL     1      -8.538   1.818   0.277  0.00  0.00    +0.000 A 
ENDBRANCH  28  29
ENDBRANCH  27  28
ENDBRANCH  25  27
ENDBRANCH  21  24
ENDBRANCH  19  21
ENDBRANCH   1  18
BRANCH   1  35
ATOM     35  CB  UNL     1       2.631  -2.761   1.414  0.00  0.00    +0.000 C 
ATOM     36  CG1 UNL     1       1.546  -3.402   2.285  0.00  0.00    +0.000 C 
ATOM     37  CG2 UNL     1       3.239  -3.814   0.482  0.00  0.00    +0.000 C 
ENDBRANCH   1  35
TORSDOF 13
