REMARK  Name = 448130
REMARK  17 active torsions:
REMARK  status: ('A' for Active; 'I' for Inactive)
REMARK    1  A    between atoms: SG_1  and  CB_22
REMARK    2  A    between atoms: O_3  and  C_23
REMARK    3  A    between atoms: O_6  and  C_24
REMARK    4  A    between atoms: N_8  and  CA_12
REMARK    5  A    between atoms: N_9  and  CA_13
REMARK    6  A    between atoms: N_10  and  CA_20
REMARK    7  A    between atoms: CB_11  and  CA_12
REMARK    8  A    between atoms: CB_11  and  CG1_18
REMARK    9  A    between atoms: CB_11  and  CG2_19
REMARK   10  A    between atoms: CA_12  and  C_23
REMARK   11  A    between atoms: CA_13  and  C_17
REMARK   12  A    between atoms: CA_13  and  CB_22
REMARK   13  A    between atoms: C_14  and  C_15
REMARK   14  A    between atoms: C_14  and  C_16
REMARK   15  A    between atoms: C_15  and  CA_20
REMARK   16  A    between atoms: C_16  and  C_21
REMARK   17  A    between atoms: CA_20  and  C_24
REMARK                            x       y       z     vdW  Elec       q    Type
REMARK                         _______ _______ _______ _____ _____    ______ ____
ROOT
ATOM      1  CA  UNL     1       1.029   0.620  -0.266  0.00  0.00    +0.000 C 
ENDROOT
BRANCH   1   4
ATOM      2  O   UNL     1       2.084  -0.498   1.612  0.00  0.00    +0.000 OA
ATOM      3  N   UNL     1       3.400   0.136  -0.191  0.00  0.00    +0.000 N 
ATOM      4  C   ACE A   1       2.203   0.014   0.500  0.00  0.00    +0.000 C 
ATOM      5  H   UNL     1       3.375   0.471  -1.149  0.00  0.00    +0.000 HD
BRANCH   3   6
ATOM      6  CA  UNL     1       4.657  -0.338   0.338  0.00  0.00    +0.000 C 
BRANCH   6   7
ATOM      7  CB  UNL     1       5.806   0.564  -0.164  0.00  0.00    +0.000 C 
ATOM      8  CG1 UNL     1       6.051   0.445  -1.671  0.00  0.00    +0.000 C 
ATOM      9  CG2 UNL     1       5.603   2.030   0.226  0.00  0.00    +0.000 C 
ENDBRANCH   6   7
BRANCH   6  11
ATOM     10  OXT UNL     1       5.780  -2.487   0.491  0.00  0.00    +0.000 OA
ATOM     11  C   UNL     1       4.848  -1.824   0.049  0.00  0.00    +0.000 C 
BRANCH  11  12
ATOM     12  O   UNL     1       3.925  -2.359  -0.788  0.00  0.00    +0.000 OA
ATOM     13  H   UNL     1       4.098  -3.308  -0.966  0.00  0.00    +0.000 HD
ENDBRANCH  11  12
ENDBRANCH   6  11
ENDBRANCH   3   6
ENDBRANCH   1   4
BRANCH   1  15
ATOM     14  O   UNL     1      -1.547   0.093  -1.406  0.00  0.00    +0.000 OA
ATOM     15  N   UNL     1      -0.190   0.352   0.459  0.00  0.00    +0.000 N 
ATOM     16  C   UNL     1      -1.393   0.108  -0.188  0.00  0.00    +0.000 C 
ATOM     17  H   UNL     1      -0.164   0.367   1.475  0.00  0.00    +0.000 HD
BRANCH  16  18
ATOM     18  C   UNL     1      -2.519  -0.143   0.800  0.00  0.00    +0.000 C 
BRANCH  18  19
ATOM     19  C   UNL     1      -3.854  -0.414   0.106  0.00  0.00    +0.000 C 
BRANCH  19  20
ATOM     20  C   UNL     1      -4.978  -0.619   1.131  0.00  0.00    +0.000 C 
BRANCH  20  21
ATOM     21  CA  UNL     1      -6.367  -0.846   0.517  0.00  0.00    +0.000 C 
BRANCH  21  22
ATOM     22  N   UNL     1      -6.413  -2.080  -0.265  0.00  0.00    +0.000 NA
ATOM     23  H1  UNL     1      -6.143  -2.868   0.324  0.00  0.00    +0.000 HD
ATOM     24  H2  UNL     1      -7.370  -2.263  -0.562  0.00  0.00    +0.000 HD
ENDBRANCH  21  22
BRANCH  21  26
ATOM     25  OXT UNL     1      -7.051   0.227  -1.573  0.00  0.00    +0.000 OA
ATOM     26  C   UNL     1      -6.789   0.300  -0.381  0.00  0.00    +0.000 C 
BRANCH  26  27
ATOM     27  O   UNL     1      -6.858   1.458   0.327  0.00  0.00    +0.000 OA
ATOM     28  H   UNL     1      -7.136   2.213  -0.234  0.00  0.00    +0.000 HD
ENDBRANCH  26  27
ENDBRANCH  21  26
ENDBRANCH  20  21
ENDBRANCH  19  20
ENDBRANCH  18  19
ENDBRANCH  16  18
ENDBRANCH   1  15
BRANCH   1  29
ATOM     29  CB  UNL     1       1.208   2.108  -0.575  0.00  0.00    +0.000 C 
BRANCH  29  30
ATOM     30  SG  UNL     1       1.366   3.153   0.910  0.00  0.00    +0.000 S 
ATOM     31  HG  UNL     1       1.491   4.320   0.262  0.00  0.00    +0.000 HD
ENDBRANCH  29  30
ENDBRANCH   1  29
TORSDOF 15
