REMARK  Name = 
REMARK  27 active torsions:
REMARK  status: ('A' for Active; 'I' for Inactive)
REMARK    1  A    between atoms: C_1  and  C_2
REMARK    2  A    between atoms: N_4  and  C_5
REMARK    3  A    between atoms: C_5  and  C_6
REMARK    4  A    between atoms: C_5  and  C_50
REMARK    5  A    between atoms: C_6  and  C_7
REMARK    6  A    between atoms: C_7  and  C_8
REMARK    7  A    between atoms: N_10  and  C_11
REMARK    8  A    between atoms: C_11  and  C_12
REMARK    9  A    between atoms: C_11  and  C_37
REMARK   10  A    between atoms: C_12  and  C_13
REMARK   11  A    between atoms: C_13  and  C_14
REMARK   12  A    between atoms: C_15  and  C_16
REMARK   13  A    between atoms: C_16  and  O_18
REMARK   14  A    between atoms: C_20  and  C_21
REMARK   15  A    between atoms: C_21  and  N_22
REMARK   16  A    between atoms: C_21  and  C_32
REMARK   17  A    between atoms: C_23  and  C_25
REMARK   18  A    between atoms: C_25  and  C_26
REMARK   19  A    between atoms: C_32  and  O_34
REMARK   20  A    between atoms: N_39  and  CA_40
REMARK   21  A    between atoms: CA_40  and  CB_41
REMARK   22  A    between atoms: CA_40  and  C_42
REMARK   23  A    between atoms: N_44  and  CA_45
REMARK   24  A    between atoms: CA_45  and  CB_46
REMARK   25  A    between atoms: CA_45  and  C_47
REMARK   26  A    between atoms: C_47  and  OXT_49
REMARK   27  A    between atoms: C_50  and  O_52
REMARK                            x       y       z     vdW  Elec       q    Type
REMARK                         _______ _______ _______ _____ _____    ______ ____
ROOT
ATOM      1  C   UNK A   1      -1.175  -0.352  -0.550  0.00  0.00    +0.000 C 
ENDROOT
BRANCH   1   4
ATOM      2  C   UNK A   1      -2.650   1.675  -0.316  0.00  0.00    +0.000 C 
ATOM      3  O   UNK A   1      -3.053   1.372  -1.478  0.00  0.00    +0.000 OA
ATOM      4  N   UNK A   1      -1.702   0.854   0.321  0.00  0.00    +0.000 N 
ATOM      5  H   UNK A   1      -1.391   1.018   1.240  0.00  0.00    +0.000 HD
BRANCH   2   6
ATOM      6  C   UNK A   1      -2.991   3.015   0.252  0.00  0.00    +0.000 C 
BRANCH   6   7
ATOM      7  C   UNK A   1      -4.044   3.697  -0.587  0.00  0.00    +0.000 C 
BRANCH   7   8
ATOM      8  C   UNK A   1      -5.011   4.496   0.478  0.00  0.00    +0.000 C 
BRANCH   8  12
ATOM      9  C   UNK A   0      -7.577   6.004  -1.280  0.00  0.00    +0.000 C 
ATOM     10  C   UNK A   0      -6.832   5.842  -0.707  0.00  0.00    +0.000 C 
ATOM     11  O   UNK A   0      -6.459   6.784   0.059  0.00  0.00    +0.000 OA
ATOM     12  N   UNK A   1      -6.198   4.583  -0.551  0.00  0.00    +0.000 N 
ATOM     13  H   UNK A   1      -6.489   3.796  -1.065  0.00  0.00    +0.000 HD
ENDBRANCH   8  12
BRANCH   8  14
ATOM     14  C   UNK A   1      -5.563   3.124   1.117  0.00  0.00    +0.000 C 
ATOM     15  O   UNK A   1      -6.101   3.379   2.229  0.00  0.00    +0.000 OA
BRANCH  14  16
ATOM     16  O   UNK A   1      -5.973   2.122   0.292  0.00  0.00    +0.000 OA
ATOM     17  H   UNK A   1      -5.535   1.978  -0.524  0.00  0.00    +0.000 HD
ENDBRANCH  14  16
ENDBRANCH   8  14
ENDBRANCH   7   8
ENDBRANCH   6   7
ENDBRANCH   2   6
ENDBRANCH   1   4
BRANCH   1  18
ATOM     18  C   UNK A   1      -2.607  -1.072  -0.626  0.00  0.00    +0.000 C 
ATOM     19  O   UNK A   1      -3.418  -0.936   0.266  0.00  0.00    +0.000 OA
ATOM     20  N   ALA A   2      -2.595  -2.169  -1.448  0.00  0.00    +0.000 N 
ATOM     21  H   ALA A   2      -1.777  -2.395  -1.946  0.00  0.00    +0.000 HD
BRANCH  20  22
ATOM     22  CA  ALA A   2      -3.871  -3.070  -1.602  0.00  0.00    +0.000 C 
ATOM     23  CB  ALA A   2      -4.907  -1.802  -1.424  0.00  0.00    +0.000 C 
BRANCH  22  24
ATOM     24  C   ALA A   2      -3.884  -3.514  -0.050  0.00  0.00    +0.000 C 
ATOM     25  O   ALA A   2      -4.895  -3.204   0.632  0.00  0.00    +0.000 OA
ATOM     26  N   ALA A   3      -3.635  -4.932   0.012  0.00  0.00    +0.000 N 
ATOM     27  H   ALA A   3      -2.872  -5.356  -0.443  0.00  0.00    +0.000 HD
BRANCH  26  28
ATOM     28  CA  ALA A   3      -4.678  -5.754   0.864  0.00  0.00    +0.000 C 
ATOM     29  CB  ALA A   3      -3.516  -6.720   1.509  0.00  0.00    +0.000 C 
BRANCH  28  30
ATOM     30  C   ALA A   3      -4.984  -6.775  -0.342  0.00  0.00    +0.000 C 
ATOM     31  O   ALA A   3      -5.926  -6.294  -1.037  0.00  0.00    +0.000 OA
BRANCH  30  32
ATOM     32  OXT ALA A   3      -3.941  -7.329  -1.020  0.00  0.00    +0.000 OA
ATOM     33  HXT ALA A   3      -3.219  -7.698  -0.550  0.00  0.00    +0.000 HD
ENDBRANCH  30  32
ENDBRANCH  28  30
ENDBRANCH  26  28
ENDBRANCH  22  24
ENDBRANCH  20  22
ENDBRANCH   1  18
BRANCH   1  34
ATOM     34  C   UNK A   1      -0.746  -1.225   0.778  0.00  0.00    +0.000 C 
BRANCH  34  35
ATOM     35  C   UNK A   1       0.752  -1.365   0.673  0.00  0.00    +0.000 C 
BRANCH  35  36
ATOM     36  C   UNK A   1       1.389  -0.129   0.122  0.00  0.00    +0.000 C 
ATOM     37  C   UNK A   1       1.997   0.695   0.945  0.00  0.00    +0.000 C 
ATOM     38  N   UNK A   1       2.830   1.686   0.438  0.00  0.00    +0.000 N 
ATOM     39  C   UNK A   1       3.851   1.456  -0.650  0.00  0.00    +0.000 C 
ATOM     40  S   UNK A   1       2.601   1.089  -2.025  0.00  0.00    +0.000 S 
ATOM     41  C   UNK A   1       1.397  -0.043  -1.347  0.00  0.00    +0.000 C 
ATOM     42  H   UNK A   1       2.749   2.594   0.811  0.00  0.00    +0.000 HD
BRANCH  37  43
ATOM     43  C   UNK A   1       1.500   0.781   2.329  0.00  0.00    +0.000 C 
ATOM     44  O   UNK A   1       0.912   1.779   2.784  0.00  0.00    +0.000 OA
BRANCH  43  45
ATOM     45  O   UNK A   1       1.577  -0.381   3.084  0.00  0.00    +0.000 OA
ATOM     46  H   UNK A   1       2.020  -1.133   2.742  0.00  0.00    +0.000 HD
ENDBRANCH  43  45
ENDBRANCH  37  43
BRANCH  39  47
ATOM     47  C   UNK A   1       4.145  -0.165  -0.319  0.00  0.00    +0.000 C 
BRANCH  47  48
ATOM     48  N   UNK A   1       5.110   0.180   0.865  0.00  0.00    +0.000 N 
ATOM     49  C   UNK A   0       6.074   1.172   0.704  0.00  0.00    +0.000 C 
ATOM     50  O   UNK A   0       5.855   2.049  -0.174  0.00  0.00    +0.000 OA
ATOM     51  H   UNK A   1       5.035  -0.302   1.720  0.00  0.00    +0.000 HD
BRANCH  49  52
ATOM     52  C   UNK A   0       7.091   1.444   1.754  0.00  0.00    +0.000 C 
BRANCH  52  53
ATOM     53  C   UNK A   0       8.362   0.825   1.260  0.00  0.00    +0.000 A 
ATOM     54  C   UNK A   0       8.899   1.105   0.027  0.00  0.00    +0.000 A 
ATOM     55  C   UNK A   0       9.804   0.218  -0.539  0.00  0.00    +0.000 A 
ATOM     56  C   UNK A   0      10.216  -0.934   0.090  0.00  0.00    +0.000 A 
ATOM     57  C   UNK A   0       9.590  -1.256   1.284  0.00  0.00    +0.000 A 
ATOM     58  C   UNK A   0       8.752  -0.344   1.897  0.00  0.00    +0.000 A 
ENDBRANCH  52  53
ENDBRANCH  49  52
ENDBRANCH  47  48
BRANCH  47  59
ATOM     59  C   UNK A   1       5.344  -0.248  -1.390  0.00  0.00    +0.000 C 
ATOM     60  O   UNK A   1       5.050   0.146  -2.553  0.00  0.00    +0.000 OA
BRANCH  59  61
ATOM     61  O   UNK A   1       5.834  -1.561  -1.342  0.00  0.00    +0.000 OA
ATOM     62  H   UNK A   1       6.079  -1.940  -0.521  0.00  0.00    +0.000 HD
ENDBRANCH  59  61
ENDBRANCH  47  59
ENDBRANCH  39  47
ENDBRANCH  35  36
ENDBRANCH  34  35
ENDBRANCH   1  34
TORSDOF 24
