REMARK  Name = 445076
REMARK  11 active torsions:
REMARK  status: ('A' for Active; 'I' for Inactive)
REMARK    1  A    between atoms: O_1  and  C_18
REMARK    2  A    between atoms: OE1_4  and  CD_21
REMARK    3  A    between atoms: N_8  and  CA_15
REMARK    4  A    between atoms: N_9  and  C_24
REMARK    5  A    between atoms: N_10  and  C_27
REMARK    6  A    between atoms: N_13  and  C_29
REMARK    7  A    between atoms: CA_15  and  CB_16
REMARK    8  A    between atoms: CA_15  and  C_18
REMARK    9  A    between atoms: CB_16  and  CG_17
REMARK   10  A    between atoms: CG_17  and  CD_21
REMARK   11  A    between atoms: C_19  and  C_20
REMARK                            x       y       z     vdW  Elec       q    Type
REMARK                         _______ _______ _______ _____ _____    ______ ____
ROOT
ATOM      1  C   UNK A   0       2.079   1.277  -0.837  0.00  0.00    +0.000 A 
ATOM      2  C   UNK A   0       1.300   0.123  -0.928  0.00  0.00    +0.000 A 
ATOM      3  C   UNK A   0       1.486   2.493  -0.497  0.00  0.00    +0.000 A 
ATOM      4  C   UNK A   0      -0.664   1.401  -0.340  0.00  0.00    +0.000 A 
ATOM      5  C   UNK A   0      -0.071   0.185  -0.680  0.00  0.00    +0.000 A 
ATOM      6  C   UNK A   0       0.114   2.555  -0.249  0.00  0.00    +0.000 A 
ENDROOT
BRANCH   4   8
ATOM      7  O   UNK A   0      -2.747  -0.757  -0.404  0.00  0.00    +0.000 OA
ATOM      8  N   UNK A   0      -2.035   1.463  -0.093  0.00  0.00    +0.000 N 
ATOM      9  N   UNK A   0      -4.263   0.899   0.179  0.00  0.00    +0.000 N 
ATOM     10  C   UNK A   0      -2.984   0.419  -0.134  0.00  0.00    +0.000 C 
ATOM     11  H   UNK A   0      -2.396   2.383   0.148  0.00  0.00    +0.000 HD
ATOM     12  H   UNK A   0      -4.356   1.888   0.387  0.00  0.00    +0.000 HD
BRANCH   9  17
ATOM     13  O   UNK A   0      -8.886   0.219   0.841  0.00  0.00    +0.000 OA
ATOM     14  N   UNK A   0      -5.302  -1.225  -0.056  0.00  0.00    +0.000 N 
ATOM     15  N   UNK A   0      -7.604  -1.590   0.268  0.00  0.00    +0.000 NA
ATOM     16  N   UNK A   0      -6.153  -3.344  -0.322  0.00  0.00    +0.000 N 
ATOM     17  C   UNK A   0      -5.380   0.119   0.218  0.00  0.00    +0.000 A 
ATOM     18  C   UNK A   0      -6.575   0.667   0.530  0.00  0.00    +0.000 A 
ATOM     19  C   UNK A   0      -6.410  -2.032  -0.023  0.00  0.00    +0.000 A 
ATOM     20  C   UNK A   0      -7.785  -0.248   0.560  0.00  0.00    +0.000 A 
ATOM     21  H   UNK A   0      -4.396  -1.612  -0.287  0.00  0.00    +0.000 HD
ATOM     22  H   UNK A   0      -6.894  -4.036  -0.330  0.00  0.00    +0.000 HD
ATOM     23  H   UNK A   0      -5.216  -3.663  -0.545  0.00  0.00    +0.000 HD
BRANCH  18  24
ATOM     24  N   UNK A   0      -6.825   1.976   0.828  0.00  0.00    +0.000 N 
ATOM     25  H   UNK A   0      -6.077   2.657   0.833  0.00  0.00    +0.000 HD
ATOM     26  H   UNK A   0      -7.769   2.268   1.048  0.00  0.00    +0.000 HD
ENDBRANCH  18  24
ENDBRANCH   9  17
ENDBRANCH   4   8
BRANCH   1  29
ATOM     27  O   UNK A   0       4.125   2.219  -1.489  0.00  0.00    +0.000 OA
ATOM     28  N   GLU A   1       4.147  -0.013  -0.859  0.00  0.00    +0.000 N 
ATOM     29  C   UNK A   0       3.539   1.211  -1.101  0.00  0.00    +0.000 C 
ATOM     30  H   GLU A   1       3.613  -0.779  -0.461  0.00  0.00    +0.000 HD
BRANCH  28  31
ATOM     31  CA  GLU A   1       5.560  -0.228  -1.044  0.00  0.00    +0.000 C 
BRANCH  31  33
ATOM     32  OXT GLU A   1       4.861  -2.485  -1.632  0.00  0.00    +0.000 OA
ATOM     33  C   GLU A   1       5.746  -1.644  -1.547  0.00  0.00    +0.000 C 
BRANCH  33  34
ATOM     34  O   GLU A   1       7.026  -1.879  -1.940  0.00  0.00    +0.000 OA
ATOM     35  H   GLU A   1       7.142  -2.791  -2.281  0.00  0.00    +0.000 HD
ENDBRANCH  33  34
ENDBRANCH  31  33
BRANCH  31  36
ATOM     36  CB  GLU A   1       6.377   0.096   0.213  0.00  0.00    +0.000 C 
BRANCH  36  37
ATOM     37  CG  GLU A   1       6.072  -0.761   1.448  0.00  0.00    +0.000 C 
BRANCH  37  39
ATOM     38  OE2 GLU A   1       7.730   0.497   2.713  0.00  0.00    +0.000 OA
ATOM     39  CD  GLU A   1       6.895  -0.395   2.664  0.00  0.00    +0.000 C 
BRANCH  39  40
ATOM     40  OE1 GLU A   1       6.627  -1.214   3.714  0.00  0.00    +0.000 OA
ATOM     41  HE1 GLU A   1       7.172  -0.992   4.499  0.00  0.00    +0.000 HD
ENDBRANCH  39  40
ENDBRANCH  37  39
ENDBRANCH  36  37
ENDBRANCH  31  36
ENDBRANCH  28  31
ENDBRANCH   1  29
TORSDOF 11
