REMARK  Name = 
REMARK  22 active torsions:
REMARK  status: ('A' for Active; 'I' for Inactive)
REMARK    1  A    between atoms: C_1  and  C_2
REMARK    2  A    between atoms: N_6  and  C_7
REMARK    3  A    between atoms: C_7  and  C_8
REMARK    4  A    between atoms: C_8  and  C_9
REMARK    5  A    between atoms: C_9  and  C_10
REMARK    6  A    between atoms: C_10  and  C_11
REMARK    7  A    between atoms: C_14  and  C_15
REMARK    8  A    between atoms: C_15  and  C_16
REMARK    9  A    between atoms: N_18  and  CA_19
REMARK   10  A    between atoms: CA_19  and  C_20
REMARK   11  A    between atoms: CA_19  and  C_22
REMARK   12  A    between atoms: C_20  and  O_21
REMARK   13  A    between atoms: N_24  and  C_25
REMARK   14  A    between atoms: C_25  and  C_26
REMARK   15  A    between atoms: C_25  and  C_31
REMARK   16  A    between atoms: C_26  and  C_27
REMARK   17  A    between atoms: C_27  and  C_28
REMARK   18  A    between atoms: C_28  and  C_29
REMARK   19  A    between atoms: C_29  and  N_30
REMARK   20  A    between atoms: N_33  and  C_34
REMARK   21  A    between atoms: C_34  and  C_35
REMARK   22  A    between atoms: C_35  and  C_36
REMARK                            x       y       z     vdW  Elec       q    Type
REMARK                         _______ _______ _______ _____ _____    ______ ____
ROOT
ATOM      1  CA  UNL     1      -0.670  -2.453   1.641  0.00  0.00    +0.000 C 
ENDROOT
BRANCH   1   4
ATOM      2  C   UNL     1       0.568  -1.433  -0.339  0.00  0.00    +0.000 C 
ATOM      3  O   UNL     1       0.565  -0.343   0.273  0.00  0.00    +0.000 OA
ATOM      4  N   UNL     1       0.174  -2.614   0.287  0.00  0.00    +0.000 N 
ATOM      5  H   UNL     1       0.402  -3.498  -0.081  0.00  0.00    +0.000 HD
BRANCH   2   6
ATOM      6  C   UNL     1       1.250  -1.531  -1.665  0.00  0.00    +0.000 C 
BRANCH   6  10
ATOM      7  C   UNL     1       4.644   0.413  -0.166  0.00  0.00    +0.000 A 
ATOM      8  C   UNL     1       3.598   1.198  -0.598  0.00  0.00    +0.000 A 
ATOM      9  C   UNL     1       2.492   0.614  -1.202  0.00  0.00    +0.000 A 
ATOM     10  C   UNL     1       2.507  -0.721  -1.594  0.00  0.00    +0.000 A 
ATOM     11  C   UNL     1       3.685  -1.397  -1.374  0.00  0.00    +0.000 A 
ATOM     12  C   UNL     1       4.671  -0.929  -0.514  0.00  0.00    +0.000 A 
BRANCH   7  13
ATOM     13  C   UNL     1       5.916   0.978   0.355  0.00  0.00    +0.000 C 
BRANCH  13  14
ATOM     14  C   UNL     1       6.329   2.232  -0.403  0.00  0.00    +0.000 C 
BRANCH  14  15
ATOM     15  C   UNL     1       7.000   3.132   0.624  0.00  0.00    +0.000 C 
BRANCH  15  16
ATOM     16  C   UNL     1       8.058   2.283   1.301  0.00  0.00    +0.000 C 
BRANCH  16  22
ATOM     17  C   UNL     1       9.609  -0.276   0.682  0.00  0.00    +0.000 C 
ATOM     18  C   UNL     1       9.882   0.959   0.220  0.00  0.00    +0.000 A 
ATOM     19  N   UNL     1      10.997   1.338  -0.443  0.00  0.00    +0.000 NA
ATOM     20  C   UNL     1      10.909   2.631  -0.795  0.00  0.00    +0.000 A 
ATOM     21  C   UNL     1       9.640   3.041  -0.451  0.00  0.00    +0.000 A 
ATOM     22  N   UNL     1       9.107   2.055   0.310  0.00  0.00    +0.000 N 
ENDBRANCH  16  22
ENDBRANCH  15  16
ENDBRANCH  14  15
ENDBRANCH  13  14
ENDBRANCH   7  13
ENDBRANCH   6  10
ENDBRANCH   2   6
ENDBRANCH   1   4
BRANCH   1  23
ATOM     23  C   UNL     1      -1.639  -1.284   1.012  0.00  0.00    +0.000 C 
ATOM     24  O   UNL     1      -1.965  -0.411   1.843  0.00  0.00    +0.000 OA
ATOM     25  N   UNL     1      -2.787  -1.812   0.323  0.00  0.00    +0.000 N 
ATOM     26  H   UNL     1      -3.264  -2.658   0.482  0.00  0.00    +0.000 HD
BRANCH  25  27
ATOM     27  C   UNL     1      -3.099  -0.672  -0.773  0.00  0.00    +0.000 C 
BRANCH  27  28
ATOM     28  C   UNL     1      -4.673  -0.473  -0.365  0.00  0.00    +0.000 C 
ATOM     29  O   UNL     1      -5.143  -1.088   0.554  0.00  0.00    +0.000 OA
ATOM     30  N   UNL     1      -5.289   0.485  -1.198  0.00  0.00    +0.000 N 
ATOM     31  H   UNL     1      -4.759   1.106  -1.747  0.00  0.00    +0.000 HD
BRANCH  30  32
ATOM     32  C   UNL     1      -6.723   0.512  -1.209  0.00  0.00    +0.000 C 
BRANCH  32  33
ATOM     33  C   UNL     1      -7.363   0.134   0.089  0.00  0.00    +0.000 C 
BRANCH  33  34
ATOM     34  C   UNL     1      -8.156   1.343   0.572  0.00  0.00    +0.000 C 
ATOM     35  C   UNL     1      -9.029   1.802  -0.590  0.00  0.00    +0.000 C 
ATOM     36  C   UNL     1      -9.715   3.087  -0.179  0.00  0.00    +0.000 C 
ATOM     37  C   UNL     1      -8.627   4.120   0.026  0.00  0.00    +0.000 C 
ATOM     38  C   UNL     1      -7.761   3.735   1.221  0.00  0.00    +0.000 C 
ATOM     39  C   UNL     1      -7.113   2.413   0.876  0.00  0.00    +0.000 C 
ENDBRANCH  33  34
ENDBRANCH  32  33
ENDBRANCH  30  32
ENDBRANCH  27  28
BRANCH  27  40
ATOM     40  C   UNL     1      -3.482  -1.826  -1.930  0.00  0.00    +0.000 C 
BRANCH  40  41
ATOM     41  C   UNL     1      -4.431  -2.757  -1.250  0.00  0.00    +0.000 C 
BRANCH  41  42
ATOM     42  C   UNL     1      -4.048  -4.186  -1.523  0.00  0.00    +0.000 C 
BRANCH  42  43
ATOM     43  C   UNL     1      -5.094  -5.074  -0.896  0.00  0.00    +0.000 C 
BRANCH  43  44
ATOM     44  N   UNL     1      -5.271  -4.610   0.471  0.00  0.00    +0.000 NA
ATOM     45  H   UNL     1      -4.380  -4.664   0.966  0.00  0.00    +0.000 HD
ATOM     46  H   UNL     1      -5.958  -5.197   0.943  0.00  0.00    +0.000 HD
ENDBRANCH  43  44
ENDBRANCH  42  43
ENDBRANCH  41  42
ENDBRANCH  40  41
ENDBRANCH  27  40
ENDBRANCH  25  27
ENDBRANCH   1  23
BRANCH   1  47
ATOM     47  C   UNL     1       0.411  -1.329   2.263  0.00  0.00    +0.000 C 
BRANCH  47  48
ATOM     48  O   UNL     1       0.067  -1.287   3.621  0.00  0.00    +0.000 OA
ATOM     49  H   UNL     1      -0.869  -1.050   3.710  0.00  0.00    +0.000 HD
ENDBRANCH  47  48
ENDBRANCH   1  47
TORSDOF 21
