REMARK  Name = 72172
REMARK  13 active torsions:
REMARK  status: ('A' for Active; 'I' for Inactive)
REMARK    1  A    between atoms: O_1  and  C_11
REMARK    2  A    between atoms: O_3  and  C_17
REMARK    3  A    between atoms: N_5  and  CA_9
REMARK    4  A    between atoms: N_6  and  C_10
REMARK    5  A    between atoms: CB_7  and  CG_8
REMARK    6  A    between atoms: CB_7  and  CA_9
REMARK    7  A    between atoms: CG_8  and  CD1_14
REMARK    8  A    between atoms: CG_8  and  CD2_15
REMARK    9  A    between atoms: CA_9  and  C_17
REMARK   10  A    between atoms: C_10  and  C_11
REMARK   11  A    between atoms: C_10  and  C_12
REMARK   12  A    between atoms: C_11  and  C_13
REMARK   13  A    between atoms: C_12  and  C_16
REMARK                            x       y       z     vdW  Elec       q    Type
REMARK                         _______ _______ _______ _____ _____    ______ ____
ROOT
ATOM      1  C   UNL     1      -0.470   0.934   0.965  0.00  0.00    +0.000 C 
ENDROOT
BRANCH   1   4
ATOM      2  O   UNL     1       1.723   1.316   1.913  0.00  0.00    +0.000 OA
ATOM      3  N   UNL     1       1.557  -0.005   0.011  0.00  0.00    +0.000 N 
ATOM      4  C   ACE A   0       1.047   0.778   1.039  0.00  0.00    +0.000 C 
ATOM      5  H   UNL     1       0.935  -0.320  -0.726  0.00  0.00    +0.000 HD
BRANCH   3   6
ATOM      6  CA  UNL     1       2.963  -0.274  -0.142  0.00  0.00    +0.000 C 
BRANCH   6   8
ATOM      7  OXT UNL     1       4.925   0.845  -1.011  0.00  0.00    +0.000 OA
ATOM      8  C   UNL     1       3.705   0.827  -0.884  0.00  0.00    +0.000 C 
BRANCH   8   9
ATOM      9  O   UNL     1       2.914   1.822  -1.350  0.00  0.00    +0.000 OA
ATOM     10  H   UNL     1       3.433   2.523  -1.799  0.00  0.00    +0.000 HD
ENDBRANCH   8   9
ENDBRANCH   6   8
BRANCH   6  11
ATOM     11  CB  UNL     1       3.228  -1.671  -0.722  0.00  0.00    +0.000 C 
BRANCH  11  12
ATOM     12  CG  UNL     1       2.544  -2.876  -0.037  0.00  0.00    +0.000 C 
ATOM     13  CD1 UNL     1       2.981  -2.936   1.432  0.00  0.00    +0.000 C 
ATOM     14  CD2 UNL     1       1.019  -2.844  -0.112  0.00  0.00    +0.000 C 
ENDBRANCH  11  12
ENDBRANCH   6  11
ENDBRANCH   3   6
ENDBRANCH   1   4
BRANCH   1  15
ATOM     15  O   UNL     1      -0.900   1.702   2.079  0.00  0.00    +0.000 OA
ATOM     16  H   UNL     1      -0.708   1.187   2.881  0.00  0.00    +0.000 HD
ENDBRANCH   1  15
BRANCH   1  17
ATOM     17  C   UNL     1      -0.914   1.608  -0.350  0.00  0.00    +0.000 C 
BRANCH  17  18
ATOM     18  N   UNL     1      -0.219   2.898  -0.460  0.00  0.00    +0.000 NA
ATOM     19  H   UNL     1       0.783   2.745  -0.565  0.00  0.00    +0.000 HD
ATOM     20  H   UNL     1      -0.520   3.375  -1.309  0.00  0.00    +0.000 HD
ENDBRANCH  17  18
BRANCH  17  21
ATOM     21  C   UNL     1      -2.445   1.813  -0.422  0.00  0.00    +0.000 C 
BRANCH  21  22
ATOM     22  C   UNL     1      -3.228   0.522  -0.371  0.00  0.00    +0.000 A 
ATOM     23  C   UNL     1      -3.533  -0.133  -1.553  0.00  0.00    +0.000 A 
ATOM     24  C   UNL     1      -3.626   0.018   0.857  0.00  0.00    +0.000 A 
ATOM     25  C   UNL     1      -4.256  -1.325  -1.506  0.00  0.00    +0.000 A 
ATOM     26  C   UNL     1      -4.349  -1.174   0.903  0.00  0.00    +0.000 A 
ATOM     27  C   UNL     1      -4.664  -1.845  -0.278  0.00  0.00    +0.000 A 
ENDBRANCH  21  22
ENDBRANCH  17  21
ENDBRANCH   1  17
TORSDOF 11
