REMARK  Name = 
REMARK  33 active torsions:
REMARK  status: ('A' for Active; 'I' for Inactive)
REMARK    1  A    between atoms: N_1  and  C_2
REMARK    2  A    between atoms: C_2  and  C_3
REMARK    3  A    between atoms: C_2  and  C_46
REMARK    4  A    between atoms: C_3  and  C_4
REMARK    5  A    between atoms: C_4  and  C_5
REMARK    6  A    between atoms: N_7  and  C_8
REMARK    7  A    between atoms: C_8  and  C_9
REMARK    8  A    between atoms: C_8  and  C_11
REMARK    9  A    between atoms: C_9  and  S_10
REMARK   10  A    between atoms: N_13  and  C_14
REMARK   11  A    between atoms: C_14  and  C_15
REMARK   12  A    between atoms: N_17  and  C_18
REMARK   13  A    between atoms: C_18  and  C_19
REMARK   14  A    between atoms: C_19  and  C_20
REMARK   15  A    between atoms: C_20  and  C_21
REMARK   16  A    between atoms: C_21  and  N_22
REMARK   17  A    between atoms: N_22  and  C_23
REMARK   18  A    between atoms: C_23  and  C_24
REMARK   19  A    between atoms: C_24  and  C_25
REMARK   20  A    between atoms: C_25  and  N_26
REMARK   21  A    between atoms: C_27  and  C_29
REMARK   22  A    between atoms: C_29  and  N_30
REMARK   23  A    between atoms: C_31  and  C_33
REMARK   24  A    between atoms: C_33  and  C_34
REMARK   25  A    between atoms: C_33  and  N_36
REMARK   26  A    between atoms: C_34  and  S_35
REMARK   27  A    between atoms: C_37  and  C_39
REMARK   28  A    between atoms: C_39  and  C_40
REMARK   29  A    between atoms: C_40  and  C_41
REMARK   30  A    between atoms: C_41  and  N_42
REMARK   31  A    between atoms: C_41  and  C_43
REMARK   32  A    between atoms: C_43  and  O_45
REMARK   33  A    between atoms: C_46  and  O_48
REMARK                            x       y       z     vdW  Elec       q    Type
REMARK                         _______ _______ _______ _____ _____    ______ ____
ROOT
ATOM      1  N   UNK     1      -0.534   0.342   1.045  0.00  0.00    +0.000 NA
ATOM      2  H   UNK     1      -1.430   0.621   1.446  0.00  0.00    +0.000 HD
ENDROOT
BRANCH   1   3
ATOM      3  C   UNK     1      -0.097  -0.864   1.694  0.00  0.00    +0.000 C 
BRANCH   3   4
ATOM      4  C   UNK     1      -1.066  -2.006   1.529  0.00  0.00    +0.000 C 
BRANCH   4   5
ATOM      5  C   UNK     1      -2.367  -1.422   1.028  0.00  0.00    +0.000 C 
BRANCH   5   6
ATOM      6  N   UNK     1      -3.075  -0.815   2.115  0.00  0.00    +0.000 N 
ATOM      7  C   UNK     1      -3.961   0.292   2.002  0.00  0.00    +0.000 C 
ATOM      8  O   UNK     1      -4.024   0.842   0.861  0.00  0.00    +0.000 OA
ATOM      9  H   UNK     1      -2.936  -1.193   3.013  0.00  0.00    +0.000 HD
BRANCH   7  10
ATOM     10  C   UNK     1      -5.255   0.316   2.759  0.00  0.00    +0.000 C 
BRANCH  10  11
ATOM     11  N   UNK     1      -6.161  -0.506   1.957  0.00  0.00    +0.000 N 
ATOM     12  C   UNK     1      -6.477   0.061   0.671  0.00  0.00    +0.000 C 
ATOM     13  O   UNK     1      -7.100   1.104   0.735  0.00  0.00    +0.000 OA
ATOM     14  H   UNK     1      -6.522  -1.367   2.267  0.00  0.00    +0.000 HD
BRANCH  12  15
ATOM     15  C   UNK     1      -7.062  -1.168  -0.246  0.00  0.00    +0.000 C 
BRANCH  15  16
ATOM     16  N   UNK     1      -8.488  -0.480  -0.539  0.00  0.00    +0.000 N 
ATOM     17  C   UNK     1      -9.439  -0.961   0.401  0.00  0.00    +0.000 C 
ATOM     18  O   UNK     1      -9.117  -0.947   1.627  0.00  0.00    +0.000 OA
ATOM     19  H   UNK     1      -8.672   0.171  -1.254  0.00  0.00    +0.000 HD
BRANCH  17  20
ATOM     20  C   UNK     1     -10.754  -1.568   0.030  0.00  0.00    +0.000 C 
BRANCH  20  21
ATOM     21  C   UNK     1     -11.758  -1.001   1.033  0.00  0.00    +0.000 C 
BRANCH  21  22
ATOM     22  C   UNK     1     -11.391   0.623   0.839  0.00  0.00    +0.000 C 
BRANCH  22  23
ATOM     23  N   UNK     1     -12.013   0.995   2.272  0.00  0.00    +0.000 NA
ATOM     24  H   UNK     1     -12.916   0.533   2.381  0.00  0.00    +0.000 HD
ATOM     25  H   UNK     1     -12.138   2.005   2.337  0.00  0.00    +0.000 HD
ENDBRANCH  22  23
BRANCH  22  26
ATOM     26  C   UNK     1     -12.800   0.892   0.036  0.00  0.00    +0.000 C 
ATOM     27  O   UNK     1     -13.819   0.508   0.632  0.00  0.00    +0.000 OA
BRANCH  26  28
ATOM     28  O   UNK     1     -12.598   0.294  -1.219  0.00  0.00    +0.000 OA
ATOM     29  H   UNK     1     -11.852   0.528  -1.735  0.00  0.00    +0.000 HD
ENDBRANCH  26  28
ENDBRANCH  22  26
ENDBRANCH  21  22
ENDBRANCH  20  21
ENDBRANCH  17  20
ENDBRANCH  15  16
BRANCH  15  30
ATOM     30  C   UNK     1      -6.381  -0.541  -1.644  0.00  0.00    +0.000 C 
BRANCH  30  31
ATOM     31  S   UNK     1      -6.940   1.131  -1.808  0.00  0.00    +0.000 S 
ATOM     32  H   UNK     1      -8.298   1.151  -1.873  0.00  0.00    +0.000 HD
ENDBRANCH  30  31
ENDBRANCH  15  30
ENDBRANCH  12  15
ENDBRANCH  10  11
ENDBRANCH   7  10
ENDBRANCH   5   6
ENDBRANCH   4   5
ENDBRANCH   3   4
ENDBRANCH   1   3
BRANCH   1  33
ATOM     33  C   UNK     1      -0.698   0.184  -0.394  0.00  0.00    +0.000 C 
BRANCH  33  34
ATOM     34  C   UNK     1       0.539   0.786  -1.040  0.00  0.00    +0.000 C 
BRANCH  34  35
ATOM     35  C   UNK     1       1.709   0.083  -0.359  0.00  0.00    +0.000 C 
BRANCH  35  36
ATOM     36  C   UNK     1       2.788   1.062   0.047  0.00  0.00    +0.000 C 
BRANCH  36  39
ATOM     37  C   UNK     1       3.886  -0.086  -1.891  0.00  0.00    +0.000 C 
ATOM     38  O   UNK     1       2.957  -0.949  -1.881  0.00  0.00    +0.000 OA
ATOM     39  N   UNK     1       3.891   0.926  -0.884  0.00  0.00    +0.000 N 
ATOM     40  H   UNK     1       4.656   1.542  -0.821  0.00  0.00    +0.000 HD
BRANCH  37  41
ATOM     41  C   UNK     1       5.064  -0.430  -2.705  0.00  0.00    +0.000 C 
BRANCH  41  44
ATOM     42  C   UNK     1       6.099  -0.594  -0.464  0.00  0.00    +0.000 C 
ATOM     43  O   UNK     1       5.383  -1.585  -0.123  0.00  0.00    +0.000 OA
ATOM     44  N   UNK     1       6.268  -0.458  -1.883  0.00  0.00    +0.000 N 
ATOM     45  H   UNK     1       7.163  -0.387  -2.286  0.00  0.00    +0.000 HD
BRANCH  42  46
ATOM     46  C   UNK     1       7.563  -0.644   0.286  0.00  0.00    +0.000 C 
BRANCH  46  49
ATOM     47  C   UNK     1       9.289   0.823  -0.637  0.00  0.00    +0.000 C 
ATOM     48  O   UNK     1      10.069   0.727   0.357  0.00  0.00    +0.000 OA
ATOM     49  N   UNK     1       7.916   0.830  -0.238  0.00  0.00    +0.000 N 
ATOM     50  H   UNK     1       7.301   1.598  -0.278  0.00  0.00    +0.000 HD
BRANCH  47  51
ATOM     51  C   UNK     1       9.763   1.242  -1.987  0.00  0.00    +0.000 C 
BRANCH  51  52
ATOM     52  C   UNK     1      10.910   0.301  -2.347  0.00  0.00    +0.000 C 
BRANCH  52  53
ATOM     53  C   UNK     1      12.108   1.029  -1.426  0.00  0.00    +0.000 C 
BRANCH  53  54
ATOM     54  N   UNK     1      13.145   0.982  -2.652  0.00  0.00    +0.000 NA
ATOM     55  H   UNK     1      13.028   1.815  -3.229  0.00  0.00    +0.000 HD
ATOM     56  H   UNK     1      12.968   0.150  -3.215  0.00  0.00    +0.000 HD
ENDBRANCH  53  54
BRANCH  53  57
ATOM     57  C   UNK     1      12.634  -0.406  -0.828  0.00  0.00    +0.000 C 
ATOM     58  O   UNK     1      12.802  -1.304  -1.646  0.00  0.00    +0.000 OA
BRANCH  57  59
ATOM     59  O   UNK     1      13.349  -0.194   0.338  0.00  0.00    +0.000 OA
ATOM     60  H   UNK     1      13.133   0.529   0.894  0.00  0.00    +0.000 HD
ENDBRANCH  57  59
ENDBRANCH  53  57
ENDBRANCH  52  53
ENDBRANCH  51  52
ENDBRANCH  47  51
ENDBRANCH  46  49
BRANCH  46  61
ATOM     61  C   UNK     1       6.913  -0.027   1.700  0.00  0.00    +0.000 C 
BRANCH  61  62
ATOM     62  S   UNK     1       8.332  -0.122   2.846  0.00  0.00    +0.000 S 
ATOM     63  H   UNK     1       8.774  -1.406   2.916  0.00  0.00    +0.000 HD
ENDBRANCH  61  62
ENDBRANCH  46  61
ENDBRANCH  42  46
ENDBRANCH  41  44
ENDBRANCH  37  41
ENDBRANCH  36  39
ENDBRANCH  35  36
ENDBRANCH  34  35
ENDBRANCH  33  34
ENDBRANCH   1  33
TORSDOF 33
