REMARK  Name = 446783
REMARK  15 active torsions:
REMARK  status: ('A' for Active; 'I' for Inactive)
REMARK    1  A    between atoms: O_2  and  C_19
REMARK    2  A    between atoms: N_4  and  C_5
REMARK    3  A    between atoms: C_5  and  C_6
REMARK    4  A    between atoms: C_5  and  C_7
REMARK    5  A    between atoms: C_6  and  C_8
REMARK    6  A    between atoms: C_7  and  C_13
REMARK    7  A    between atoms: C_8  and  C_16
REMARK    8  A    between atoms: C_9  and  C_10
REMARK    9  A    between atoms: C_9  and  C_12
REMARK   10  A    between atoms: C_10  and  C_11
REMARK   11  A    between atoms: C_11  and  C_14
REMARK   12  A    between atoms: C_12  and  C_15
REMARK   13  A    between atoms: C_13  and  C_19
REMARK   14  A    between atoms: C_15  and  C_17
REMARK   15  A    between atoms: C_17  and  C_18
REMARK                            x       y       z     vdW  Elec       q    Type
REMARK                         _______ _______ _______ _____ _____    ______ ____
ROOT
ATOM      1  O   UNL     1      -2.499  -2.234  -2.222  0.00  0.00    +0.000 OA
ATOM      2  N   UNL     1      -2.902  -1.255  -0.155  0.00  0.00    +0.000 N 
ATOM      3  C   UNL     1      -2.460  -2.267  -0.995  0.00  0.00    +0.000 C 
ATOM      4  H   UNL     1      -2.763  -1.346   0.847  0.00  0.00    +0.000 HD
ENDROOT
BRANCH   2   5
ATOM      5  C   UNL     1      -3.471  -0.020  -0.642  0.00  0.00    +0.000 C 
BRANCH   5   6
ATOM      6  C   UNL     1      -2.367   1.002  -0.964  0.00  0.00    +0.000 C 
BRANCH   6   7
ATOM      7  C   UNL     1      -1.575   1.500   0.252  0.00  0.00    +0.000 C 
BRANCH   7   8
ATOM      8  C   UNL     1      -0.483   2.457  -0.156  0.00  0.00    +0.000 A 
ATOM      9  C   UNL     1       0.788   1.974  -0.465  0.00  0.00    +0.000 A 
ATOM     10  C   UNL     1      -0.744   3.826  -0.225  0.00  0.00    +0.000 A 
ATOM     11  C   UNL     1       1.798   2.859  -0.843  0.00  0.00    +0.000 A 
ATOM     12  C   UNL     1       0.266   4.711  -0.602  0.00  0.00    +0.000 A 
ATOM     13  C   UNL     1       1.537   4.227  -0.911  0.00  0.00    +0.000 A 
ENDBRANCH   7   8
ENDBRANCH   6   7
ENDBRANCH   5   6
BRANCH   5  14
ATOM     14  C   UNL     1      -4.551   0.455   0.346  0.00  0.00    +0.000 C 
BRANCH  14  15
ATOM     15  C   UNL     1      -5.856  -0.344   0.313  0.00  0.00    +0.000 C 
BRANCH  15  17
ATOM     16  O   UNL     1      -6.788   1.181   1.966  0.00  0.00    +0.000 OA
ATOM     17  C   UNL     1      -6.916   0.203   1.244  0.00  0.00    +0.000 C 
BRANCH  17  18
ATOM     18  O   UNL     1      -8.044  -0.553   1.214  0.00  0.00    +0.000 OA
ATOM     19  H   UNL     1      -8.729  -0.211   1.828  0.00  0.00    +0.000 HD
ENDBRANCH  17  18
ENDBRANCH  15  17
ENDBRANCH  14  15
ENDBRANCH   5  14
ENDBRANCH   2   5
BRANCH   3  20
ATOM     20  C   UNL     1      -1.937  -3.457  -0.209  0.00  0.00    +0.000 C 
BRANCH  20  21
ATOM     21  C   UNL     1      -0.471  -3.786  -0.490  0.00  0.00    +0.000 C 
BRANCH  21  22
ATOM     22  C   UNL     1       0.471  -2.650  -0.078  0.00  0.00    +0.000 C 
BRANCH  22  23
ATOM     23  C   UNL     1       1.933  -3.021  -0.339  0.00  0.00    +0.000 C 
BRANCH  23  24
ATOM     24  C   UNL     1       2.878  -1.904   0.114  0.00  0.00    +0.000 C 
BRANCH  24  25
ATOM     25  C   UNL     1       4.353  -2.220  -0.157  0.00  0.00    +0.000 C 
BRANCH  25  26
ATOM     26  C   UNL     1       5.299  -1.126   0.271  0.00  0.00    +0.000 A 
ATOM     27  C   UNL     1       5.644  -0.113  -0.623  0.00  0.00    +0.000 A 
ATOM     28  C   UNL     1       5.829  -1.128   1.562  0.00  0.00    +0.000 A 
ATOM     29  C   UNL     1       6.518   0.899  -0.227  0.00  0.00    +0.000 A 
ATOM     30  C   UNL     1       6.703  -0.116   1.958  0.00  0.00    +0.000 A 
ATOM     31  C   UNL     1       7.048   0.898   1.064  0.00  0.00    +0.000 A 
ENDBRANCH  25  26
ENDBRANCH  24  25
ENDBRANCH  23  24
ENDBRANCH  22  23
ENDBRANCH  21  22
ENDBRANCH  20  21
ENDBRANCH   3  20
TORSDOF 15
