REMARK  Name = 444640
REMARK  12 active torsions:
REMARK  status: ('A' for Active; 'I' for Inactive)
REMARK    1  A    between atoms: O_1  and  C_15
REMARK    2  A    between atoms: O_3  and  C_16
REMARK    3  A    between atoms: N_5  and  C_7
REMARK    4  A    between atoms: N_6  and  C_10
REMARK    5  A    between atoms: C_7  and  C_8
REMARK    6  A    between atoms: C_7  and  C_10
REMARK    7  A    between atoms: C_8  and  C_9
REMARK    8  A    between atoms: C_9  and  C_11
REMARK    9  A    between atoms: C_10  and  C_13
REMARK   10  A    between atoms: C_11  and  C_12
REMARK   11  A    between atoms: C_12  and  C_14
REMARK   12  A    between atoms: C_14  and  C_16
REMARK                            x       y       z     vdW  Elec       q    Type
REMARK                         _______ _______ _______ _____ _____    ______ ____
ROOT
ATOM      1  C   UNL     1      -2.394  -0.482   0.349  0.00  0.00    +0.000 C 
ENDROOT
BRANCH   1   3
ATOM      2  O   UNL     1      -3.652   2.053   1.077  0.00  0.00    +0.000 OA
ATOM      3  N   UNL     1      -2.728   0.628  -0.516  0.00  0.00    +0.000 N 
ATOM      4  C   UNL     1      -3.323   1.786  -0.072  0.00  0.00    +0.000 C 
ATOM      5  H   UNL     1      -2.463   0.575  -1.496  0.00  0.00    +0.000 HD
BRANCH   4   6
ATOM      6  O   UNL     1      -3.516   2.648  -1.105  0.00  0.00    +0.000 OA
ATOM      7  H   UNL     1      -3.940   3.482  -0.810  0.00  0.00    +0.000 HD
ENDBRANCH   4   6
ENDBRANCH   1   3
BRANCH   1   8
ATOM      8  C   UNL     1      -2.537  -1.835  -0.386  0.00  0.00    +0.000 C 
ATOM      9  C   UNL     1      -3.926  -2.004  -1.012  0.00  0.00    +0.000 C 
BRANCH   8  10
ATOM     10  N   UNL     1      -2.304  -2.949   0.538  0.00  0.00    +0.000 NA
ATOM     11  H   UNL     1      -2.426  -3.833   0.046  0.00  0.00    +0.000 HD
ATOM     12  H   UNL     1      -1.337  -2.937   0.857  0.00  0.00    +0.000 HD
ENDBRANCH   8  10
ENDBRANCH   1   8
BRANCH   1  13
ATOM     13  C   UNL     1      -1.026  -0.244   1.023  0.00  0.00    +0.000 C 
BRANCH  13  14
ATOM     14  C   UNL     1       0.224  -0.250   0.131  0.00  0.00    +0.000 C 
BRANCH  14  15
ATOM     15  C   UNL     1       1.533   0.037   0.866  0.00  0.00    +0.000 C 
BRANCH  15  16
ATOM     16  C   UNL     1       2.736  -0.103  -0.074  0.00  0.00    +0.000 C 
BRANCH  16  17
ATOM     17  C   UNL     1       4.061   0.214   0.622  0.00  0.00    +0.000 C 
BRANCH  17  19
ATOM     18  O   UNL     1       5.218  -0.117  -1.499  0.00  0.00    +0.000 OA
ATOM     19  C   UNL     1       5.248   0.150  -0.307  0.00  0.00    +0.000 C 
BRANCH  19  20
ATOM     20  O   UNL     1       6.385   0.466   0.365  0.00  0.00    +0.000 OA
ATOM     21  H   UNL     1       7.173   0.445  -0.218  0.00  0.00    +0.000 HD
ENDBRANCH  19  20
ENDBRANCH  17  19
ENDBRANCH  16  17
ENDBRANCH  15  16
ENDBRANCH  14  15
ENDBRANCH  13  14
ENDBRANCH   1  13
TORSDOF 11
