REMARK  Name = 
REMARK  19 active torsions:
REMARK  status: ('A' for Active; 'I' for Inactive)
REMARK    1  A    between atoms: C_1  and  C_2
REMARK    2  A    between atoms: N_4  and  C_5
REMARK    3  A    between atoms: C_5  and  C_6
REMARK    4  A    between atoms: C_5  and  C_22
REMARK    5  A    between atoms: C_6  and  C_7
REMARK    6  A    between atoms: C_10  and  O_11
REMARK    7  A    between atoms: O_11  and  C_12
REMARK    8  A    between atoms: C_12  and  C_13
REMARK    9  A    between atoms: C_13  and  O_15
REMARK   10  A    between atoms: C_16  and  P_17
REMARK   11  A    between atoms: P_17  and  O_19
REMARK   12  A    between atoms: P_17  and  O_20
REMARK   13  A    between atoms: N_24  and  C_25
REMARK   14  A    between atoms: C_25  and  C_26
REMARK   15  A    between atoms: C_25  and  C_27
REMARK   16  A    between atoms: C_30  and  O_31
REMARK   17  A    between atoms: O_31  and  C_32
REMARK   18  A    between atoms: C_32  and  C_33
REMARK   19  A    between atoms: C_39  and  C_40
REMARK                            x       y       z     vdW  Elec       q    Type
REMARK                         _______ _______ _______ _____ _____    ______ ____
ROOT
ATOM      1  C   UNL     1      -1.339  -0.027   1.129  0.00  0.00    +0.000 C 
ENDROOT
BRANCH   1   5
ATOM      2  C   UNL     1      -1.408   3.826   0.700  0.00  0.00    +0.000 C 
ATOM      3  C   UNL     1      -1.261   2.433   0.407  0.00  0.00    +0.000 C 
ATOM      4  O   UNL     1      -1.857   2.153  -0.675  0.00  0.00    +0.000 OA
ATOM      5  N   UNL     1      -1.440   1.515   1.428  0.00  0.00    +0.000 N 
ATOM      6  H   UNL     1      -1.630   1.827   2.342  0.00  0.00    +0.000 HD
ENDBRANCH   1   5
BRANCH   1   7
ATOM      7  C   UNL     1       0.110   0.094   0.434  0.00  0.00    +0.000 C 
ATOM      8  O   UNL     1       0.863  -0.721   1.055  0.00  0.00    +0.000 OA
ATOM      9  N   UNL     1       0.359   0.342  -0.856  0.00  0.00    +0.000 N 
ATOM     10  H   UNL     1       0.061   1.199  -1.238  0.00  0.00    +0.000 HD
BRANCH   9  11
ATOM     11  C   UNL     1       1.109  -0.679  -1.792  0.00  0.00    +0.000 C 
ATOM     12  C   UNL     1       1.321   0.470  -2.952  0.00  0.00    +0.000 C 
BRANCH  11  13
ATOM     13  C   UNL     1       2.554  -0.401  -1.149  0.00  0.00    +0.000 A 
ATOM     14  C   UNL     1       2.929   0.844  -0.836  0.00  0.00    +0.000 A 
ATOM     15  C   UNL     1       4.186   0.960  -0.248  0.00  0.00    +0.000 A 
ATOM     16  C   UNL     1       4.809  -0.156   0.301  0.00  0.00    +0.000 A 
ATOM     17  C   UNL     1       4.262  -1.426   0.153  0.00  0.00    +0.000 A 
ATOM     18  C   UNL     1       3.225  -1.545  -0.764  0.00  0.00    +0.000 A 
BRANCH  17  19
ATOM     19  C   UNL     1       4.409  -2.381   1.260  0.00  0.00    +0.000 C 
ATOM     20  N   UNL     1       5.691  -2.619   1.792  0.00  0.00    +0.000 N 
ATOM     21  O   UNL     1       3.420  -2.994   1.760  0.00  0.00    +0.000 OA
ATOM     22  H   UNL     1       6.473  -2.154   1.418  0.00  0.00    +0.000 HD
ATOM     23  H   UNL     1       5.804  -3.252   2.538  0.00  0.00    +0.000 HD
ENDBRANCH  17  19
BRANCH  16  24
ATOM     24  O   UNL     1       6.016  -0.067   0.969  0.00  0.00    +0.000 OA
BRANCH  24  25
ATOM     25  C   UNL     1       6.992   0.915   0.666  0.00  0.00    +0.000 C 
BRANCH  25  26
ATOM     26  C   UNL     1       7.326   0.938  -0.816  0.00  0.00    +0.000 C 
ATOM     27  C   UNL     1       8.795   1.312  -0.980  0.00  0.00    +0.000 C 
ATOM     28  C   UNL     1       9.572   0.479  -0.013  0.00  0.00    +0.000 C 
ATOM     29  C   UNL     1       9.355  -0.982  -0.092  0.00  0.00    +0.000 C 
ATOM     30  C   UNL     1       8.053  -1.459  -0.603  0.00  0.00    +0.000 C 
ATOM     31  C   UNL     1       7.226  -0.475  -1.356  0.00  0.00    +0.000 C 
ENDBRANCH  25  26
ENDBRANCH  24  25
ENDBRANCH  16  24
ENDBRANCH  11  13
ENDBRANCH   9  11
ENDBRANCH   1   7
BRANCH   1  32
ATOM     32  C   UNL     1      -2.213   0.056  -0.259  0.00  0.00    +0.000 C 
BRANCH  32  33
ATOM     33  C   UNL     1      -3.582  -0.366   0.070  0.00  0.00    +0.000 A 
ATOM     34  C   UNL     1      -3.964  -1.043   1.214  0.00  0.00    +0.000 A 
ATOM     35  C   UNL     1      -5.313  -1.101   1.562  0.00  0.00    +0.000 A 
ATOM     36  C   UNL     1      -6.228  -0.206   1.031  0.00  0.00    +0.000 A 
ATOM     37  C   UNL     1      -5.723   0.699   0.105  0.00  0.00    +0.000 A 
ATOM     38  C   UNL     1      -4.633   0.237  -0.624  0.00  0.00    +0.000 A 
BRANCH  37  39
ATOM     39  P   UNL     1      -6.540   2.242  -0.170  0.00  0.00    +0.000 P 
ATOM     40  O   UNL     1      -5.461   3.324  -0.203  0.00  0.00    +0.000 OA
BRANCH  39  41
ATOM     41  O   UNL     1      -7.538   2.649   1.101  0.00  0.00    +0.000 OA
ATOM     42  H   UNL     1      -7.047   2.576   1.934  0.00  0.00    +0.000 HD
ENDBRANCH  39  41
BRANCH  39  43
ATOM     43  O   UNL     1      -7.270   2.326  -1.679  0.00  0.00    +0.000 OA
ATOM     44  H   UNL     1      -6.629   2.076  -2.363  0.00  0.00    +0.000 HD
ENDBRANCH  39  43
ENDBRANCH  37  39
BRANCH  36  45
ATOM     45  O   UNL     1      -7.589  -0.439   0.929  0.00  0.00    +0.000 OA
BRANCH  45  46
ATOM     46  C   UNL     1      -8.088  -1.644   0.351  0.00  0.00    +0.000 C 
BRANCH  46  47
ATOM     47  C   UNL     1      -7.232  -2.109  -0.780  0.00  0.00    +0.000 C 
ATOM     48  O   UNL     1      -7.411  -1.677  -1.959  0.00  0.00    +0.000 OA
BRANCH  47  49
ATOM     49  O   UNL     1      -6.492  -3.293  -0.695  0.00  0.00    +0.000 OA
ATOM     50  H   UNL     1      -6.317  -3.677   0.141  0.00  0.00    +0.000 HD
ENDBRANCH  47  49
ENDBRANCH  46  47
ENDBRANCH  45  46
ENDBRANCH  36  45
ENDBRANCH  32  33
ENDBRANCH   1  32
TORSDOF 17
