REMARK  Name = 445072
REMARK  11 active torsions:
REMARK  status: ('A' for Active; 'I' for Inactive)
REMARK    1  A    between atoms: O_3  and  C_31
REMARK    2  A    between atoms: OE1_5  and  CD_32
REMARK    3  A    between atoms: N_11  and  CA_27
REMARK    4  A    between atoms: C_12  and  C_14
REMARK    5  A    between atoms: C_14  and  C_17
REMARK    6  A    between atoms: C_17  and  C_19
REMARK    7  A    between atoms: C_24  and  C_29
REMARK    8  A    between atoms: CA_27  and  CB_28
REMARK    9  A    between atoms: CA_27  and  C_31
REMARK   10  A    between atoms: CB_28  and  CG_30
REMARK   11  A    between atoms: CG_30  and  CD_32
REMARK                            x       y       z     vdW  Elec       q    Type
REMARK                         _______ _______ _______ _____ _____    ______ ____
ROOT
ATOM      1  C   UNL     1      -0.187  -0.155  -0.025  0.00  0.00    +0.000 A 
ATOM      2  C   UNL     1       0.703  -0.823   0.817  0.00  0.00    +0.000 A 
ATOM      3  C   UNL     1       0.253   0.347  -1.249  0.00  0.00    +0.000 A 
ATOM      4  C   UNL     1       2.475  -0.485  -0.791  0.00  0.00    +0.000 A 
ATOM      5  C   UNL     1       2.034  -0.988   0.433  0.00  0.00    +0.000 A 
ATOM      6  C   UNL     1       1.584   0.182  -1.632  0.00  0.00    +0.000 A 
ENDROOT
BRANCH   4   9
ATOM      7  O   UNL     1       4.175  -0.671  -2.395  0.00  0.00    +0.000 OA
ATOM      8  N   UNL     1       4.808  -0.779  -0.167  0.00  0.00    +0.000 N 
ATOM      9  C   ACE A   0       3.862  -0.657  -1.191  0.00  0.00    +0.000 C 
ATOM     10  H   UNL     1       4.518  -0.681   0.801  0.00  0.00    +0.000 HD
BRANCH   8  11
ATOM     11  CA  UNL     1       6.226  -0.931  -0.403  0.00  0.00    +0.000 C 
BRANCH  11  13
ATOM     12  OXT UNL     1       6.146  -2.247   1.646  0.00  0.00    +0.000 OA
ATOM     13  C   UNL     1       6.775  -1.843   0.676  0.00  0.00    +0.000 C 
BRANCH  13  14
ATOM     14  O   UNL     1       8.060  -2.208   0.426  0.00  0.00    +0.000 OA
ATOM     15  H   UNL     1       8.409  -2.811   1.117  0.00  0.00    +0.000 HD
ENDBRANCH  13  14
ENDBRANCH  11  13
BRANCH  11  16
ATOM     16  CB  UNL     1       6.957   0.413  -0.507  0.00  0.00    +0.000 C 
BRANCH  16  17
ATOM     17  CG  UNL     1       6.924   1.291   0.750  0.00  0.00    +0.000 C 
BRANCH  17  19
ATOM     18  OE2 UNL     1       8.213   2.993  -0.423  0.00  0.00    +0.000 OA
ATOM     19  CD  UNL     1       7.648   2.611   0.592  0.00  0.00    +0.000 C 
BRANCH  19  20
ATOM     20  OE1 UNL     1       7.636   3.329   1.745  0.00  0.00    +0.000 OA
ATOM     21  HE1 UNL     1       8.120   4.177   1.652  0.00  0.00    +0.000 HD
ENDBRANCH  19  20
ENDBRANCH  17  19
ENDBRANCH  16  17
ENDBRANCH  11  16
ENDBRANCH   8  11
ENDBRANCH   4   9
BRANCH   1  22
ATOM     22  C   UNL     1      -1.626   0.022   0.389  0.00  0.00    +0.000 C 
BRANCH  22  23
ATOM     23  C   UNL     1      -2.492  -1.143  -0.084  0.00  0.00    +0.000 C 
BRANCH  23  29
ATOM     24  O   UNL     1      -6.075   2.699  -0.490  0.00  0.00    +0.000 OA
ATOM     25  N   UNL     1      -6.168  -1.956   0.350  0.00  0.00    +0.000 N 
ATOM     26  N   UNL     1      -8.138  -0.561   0.449  0.00  0.00    +0.000 N 
ATOM     27  N   UNL     1      -8.099   1.762   0.045  0.00  0.00    +0.000 NA
ATOM     28  N   UNL     1     -10.095   0.639   0.581  0.00  0.00    +0.000 N 
ATOM     29  C   UNL     1      -3.942  -0.968   0.358  0.00  0.00    +0.000 C 
ATOM     30  C   UNL     1      -4.558   0.306  -0.257  0.00  0.00    +0.000 C 
ATOM     31  C   UNL     1      -4.783  -2.201   0.000  0.00  0.00    +0.000 C 
ATOM     32  C   UNL     1      -6.052   0.373  -0.053  0.00  0.00    +0.000 A 
ATOM     33  C   UNL     1      -6.785  -0.722   0.251  0.00  0.00    +0.000 A 
ATOM     34  C   UNL     1      -6.735   1.709  -0.185  0.00  0.00    +0.000 A 
ATOM     35  C   UNL     1      -8.745   0.666   0.344  0.00  0.00    +0.000 A 
ATOM     36  H   UNL     1      -6.771  -2.748   0.549  0.00  0.00    +0.000 HD
ATOM     37  H   UNL     1      -8.668  -1.395   0.678  0.00  0.00    +0.000 HD
ATOM     38  H   UNL     1     -10.653   1.484   0.533  0.00  0.00    +0.000 HD
ATOM     39  H   UNL     1     -10.575  -0.224   0.811  0.00  0.00    +0.000 HD
ENDBRANCH  23  29
ENDBRANCH  22  23
ENDBRANCH   1  22
TORSDOF 11
