REMARK  Name = 448581
REMARK  11 active torsions:
REMARK  status: ('A' for Active; 'I' for Inactive)
REMARK    1  A    between atoms: SD_1  and  CG_10
REMARK    2  A    between atoms: SD_1  and  CE_16
REMARK    3  A    between atoms: O_2  and  C_13
REMARK    4  A    between atoms: O_5  and  C_15
REMARK    5  A    between atoms: N_7  and  CA_8
REMARK    6  A    between atoms: CA_8  and  CB_9
REMARK    7  A    between atoms: CA_8  and  C_13
REMARK    8  A    between atoms: CB_9  and  CG_10
REMARK    9  A    between atoms: C_11  and  C_12
REMARK   10  A    between atoms: C_11  and  C_14
REMARK   11  A    between atoms: C_14  and  C_15
REMARK                            x       y       z     vdW  Elec       q    Type
REMARK                         _______ _______ _______ _____ _____    ______ ____
ROOT
ATOM      1  O   UNL     1      -1.031  -0.696   1.837  0.00  0.00    +0.000 OA
ATOM      2  N   UNL     1       0.255  -0.637  -0.098  0.00  0.00    +0.000 N 
ATOM      3  C   ACE A   0      -0.918  -0.497   0.631  0.00  0.00    +0.000 C 
ATOM      4  H   UNL     1       0.243  -0.434  -1.093  0.00  0.00    +0.000 HD
ENDROOT
BRANCH   2   5
ATOM      5  CA  UNL     1       1.509  -1.042   0.495  0.00  0.00    +0.000 C 
BRANCH   5   7
ATOM      6  OXT UNL     1       3.403  -2.426  -0.103  0.00  0.00    +0.000 OA
ATOM      7  C   UNL     1       2.346  -1.903  -0.439  0.00  0.00    +0.000 C 
BRANCH   7   8
ATOM      8  O   UNL     1       1.858  -2.002  -1.699  0.00  0.00    +0.000 OA
ATOM      9  H   UNL     1       2.439  -2.543  -2.275  0.00  0.00    +0.000 HD
ENDBRANCH   7   8
ENDBRANCH   5   7
BRANCH   5  10
ATOM     10  CB  UNL     1       2.289   0.171   1.020  0.00  0.00    +0.000 C 
BRANCH  10  11
ATOM     11  CG  UNL     1       2.741   1.133  -0.081  0.00  0.00    +0.000 C 
BRANCH  11  12
ATOM     12  SD  UNL     1       3.660   2.527   0.635  0.00  0.00    +0.000 S 
ATOM     13  CE  UNL     1       3.978   3.442  -0.891  0.00  0.00    +0.000 C 
ENDBRANCH  11  12
ENDBRANCH  10  11
ENDBRANCH   5  10
ENDBRANCH   2   5
BRANCH   3  14
ATOM     14  C   UNL     1      -2.075  -0.063  -0.252  0.00  0.00    +0.000 C 
BRANCH  14  15
ATOM     15  C   UNL     1      -3.375   0.097   0.528  0.00  0.00    +0.000 C 
BRANCH  15  17
ATOM     16  O   UNL     1      -4.441   0.740  -1.563  0.00  0.00    +0.000 OA
ATOM     17  C   UNL     1      -4.520   0.521  -0.362  0.00  0.00    +0.000 C 
BRANCH  17  18
ATOM     18  O   UNL     1      -5.678   0.635   0.339  0.00  0.00    +0.000 OA
ATOM     19  H   UNL     1      -6.426   0.910  -0.233  0.00  0.00    +0.000 HD
ENDBRANCH  17  18
ENDBRANCH  15  17
ENDBRANCH  14  15
ENDBRANCH   3  14
TORSDOF 10
