REMARK  Name = 
REMARK  21 active torsions:
REMARK  status: ('A' for Active; 'I' for Inactive)
REMARK    1  A    between atoms: O_3  and  C_30
REMARK    2  A    between atoms: O_3  and  C_31
REMARK    3  A    between atoms: O_5  and  C_32
REMARK    4  A    between atoms: O_5  and  C_39
REMARK    5  A    between atoms: N_9  and  C_16
REMARK    6  A    between atoms: N_10  and  C_19
REMARK    7  A    between atoms: N_11  and  C_21
REMARK    8  A    between atoms: C_12  and  C_14
REMARK    9  A    between atoms: C_14  and  C_16
REMARK   10  A    between atoms: C_16  and  C_18
REMARK   11  A    between atoms: C_19  and  C_20
REMARK   12  A    between atoms: C_19  and  C_24
REMARK   13  A    between atoms: C_21  and  C_22
REMARK   14  A    between atoms: C_21  and  C_23
REMARK   15  A    between atoms: C_22  and  C_26
REMARK   16  A    between atoms: C_22  and  C_27
REMARK   17  A    between atoms: C_25  and  C_32
REMARK   18  A    between atoms: C_30  and  C_35
REMARK   19  A    between atoms: C_30  and  C_36
REMARK   20  A    between atoms: C_30  and  C_37
REMARK   21  A    between atoms: C_39  and  C_40
REMARK                            x       y       z     vdW  Elec       q    Type
REMARK                         _______ _______ _______ _____ _____    ______ ____
ROOT
ATOM      1  C   UNL     1      -0.522  -1.444   0.000  0.00  0.00    +0.000 C 
ENDROOT
BRANCH   1   2
ATOM      2  C   UNL     1      -0.522  -2.269   0.000  0.00  0.00    +0.000 A 
ATOM      3  C   UNL     1       0.193  -2.681   0.000  0.00  0.00    +0.000 A 
ATOM      4  C   UNL     1      -1.236  -2.681   0.000  0.00  0.00    +0.000 A 
ATOM      5  C   UNL     1       0.193  -3.506   0.000  0.00  0.00    +0.000 A 
ATOM      6  C   UNL     1      -1.236  -3.506   0.000  0.00  0.00    +0.000 A 
ATOM      7  C   UNL     1      -0.522  -3.919   0.000  0.00  0.00    +0.000 A 
ENDBRANCH   1   2
BRANCH   1  10
ATOM      8  O   UNL     1      -1.951  -1.444   0.000  0.00  0.00    +0.000 OA
ATOM      9  N   UNL     1      -1.236  -0.206   0.000  0.00  0.00    +0.000 N 
ATOM     10  C   UNL     1      -1.236  -1.031   0.000  0.00  0.00    +0.000 C 
ATOM     11  H   UNL     1      -0.793   0.049   0.000  0.00  0.00    +0.000 HD
BRANCH   9  12
ATOM     12  C   UNL     1      -1.951   0.206   0.000  0.00  0.00    +0.000 C 
BRANCH  12  13
ATOM     13  C   UNL     1      -1.951   1.031   0.000  0.00  0.00    +0.000 C 
ATOM     14  C   UNL     1      -1.236   1.444   0.000  0.00  0.00    +0.000 C 
BRANCH  14  16
ATOM     15  O   UNL     1      -0.522   2.681   0.000  0.00  0.00    +0.000 OA
ATOM     16  C   UNL     1      -1.236   2.269   0.000  0.00  0.00    +0.000 C 
BRANCH  16  17
ATOM     17  O   UNL     1      -1.951   2.681   0.000  0.00  0.00    +0.000 OA
BRANCH  17  18
ATOM     18  C   UNL     1      -1.951   3.506   0.000  0.00  0.00    +0.000 C 
ATOM     19  C   UNL     1      -2.665   3.919   0.000  0.00  0.00    +0.000 C 
ENDBRANCH  17  18
ENDBRANCH  16  17
ENDBRANCH  14  16
ENDBRANCH  12  13
BRANCH  12  20
ATOM     20  C   UNL     1      -2.665  -0.206   0.000  0.00  0.00    +0.000 C 
BRANCH  20  23
ATOM     21  O   UNL     1      -4.305  -0.936   0.000  0.00  0.00    +0.000 OA
ATOM     22  N   UNL     1      -4.685   0.484   0.000  0.00  0.00    +0.000 N 
ATOM     23  C   UNL     1      -3.380   0.206   0.000  0.00  0.00    +0.000 C 
ATOM     24  C   UNL     1      -3.466   1.027   0.000  0.00  0.00    +0.000 C 
ATOM     25  C   UNL     1      -4.273   1.198   0.000  0.00  0.00    +0.000 C 
ATOM     26  C   UNL     1      -4.133  -0.129   0.000  0.00  0.00    +0.000 C 
ATOM     27  H   UNL     1      -5.194   0.430   0.000  0.00  0.00    +0.000 HD
ENDBRANCH  20  23
ENDBRANCH  12  20
ENDBRANCH   9  12
ENDBRANCH   1  10
BRANCH   1  29
ATOM     28  O   UNL     1       0.907  -2.269   0.000  0.00  0.00    +0.000 OA
ATOM     29  N   UNL     1       0.193  -1.031   0.000  0.00  0.00    +0.000 N 
ATOM     30  C   UNL     1       0.907  -1.444   0.000  0.00  0.00    +0.000 C 
ATOM     31  H   UNL     1       0.193  -0.520   0.000  0.00  0.00    +0.000 HD
BRANCH  30  32
ATOM     32  C   UNL     1       1.622  -1.031   0.000  0.00  0.00    +0.000 C 
BRANCH  32  34
ATOM     33  O   UNL     1       3.051  -0.206   0.000  0.00  0.00    +0.000 OA
ATOM     34  N   UNL     1       2.336  -1.444   0.000  0.00  0.00    +0.000 N 
ATOM     35  C   UNL     1       3.051  -1.031   0.000  0.00  0.00    +0.000 C 
ATOM     36  H   UNL     1       2.336  -1.955   0.000  0.00  0.00    +0.000 HD
BRANCH  35  37
ATOM     37  O   UNL     1       3.765  -1.444   0.000  0.00  0.00    +0.000 OA
BRANCH  37  38
ATOM     38  C   UNL     1       4.480  -1.031   0.000  0.00  0.00    +0.000 C 
ATOM     39  C   UNL     1       4.067  -0.317   0.000  0.00  0.00    +0.000 C 
ATOM     40  C   UNL     1       4.892  -1.746   0.000  0.00  0.00    +0.000 C 
ATOM     41  C   UNL     1       5.194  -0.619   0.000  0.00  0.00    +0.000 C 
ENDBRANCH  37  38
ENDBRANCH  35  37
ENDBRANCH  32  34
BRANCH  32  42
ATOM     42  C   UNL     1       1.622  -0.206   0.000  0.00  0.00    +0.000 C 
ATOM     43  C   UNL     1       0.907   0.206   0.000  0.00  0.00    +0.000 C 
ATOM     44  C   UNL     1       2.336   0.206   0.000  0.00  0.00    +0.000 C 
ENDBRANCH  32  42
ENDBRANCH  30  32
ENDBRANCH   1  29
TORSDOF 15
