REMARK  Name = 
REMARK  24 active torsions:
REMARK  status: ('A' for Active; 'I' for Inactive)
REMARK    1  A    between atoms: C_1  and  C_2
REMARK    2  A    between atoms: C_2  and  O_3
REMARK    3  A    between atoms: O_3  and  C_4
REMARK    4  A    between atoms: C_4  and  C_6
REMARK    5  A    between atoms: C_7  and  C_8
REMARK    6  A    between atoms: C_8  and  C_9
REMARK    7  A    between atoms: C_8  and  N_16
REMARK    8  A    between atoms: C_9  and  C_10
REMARK    9  A    between atoms: C_17  and  C_19
REMARK   10  A    between atoms: C_19  and  C_20
REMARK   11  A    between atoms: C_19  and  N_24
REMARK   12  A    between atoms: C_20  and  C_21
REMARK   13  A    between atoms: C_21  and  C_22
REMARK   14  A    between atoms: C_21  and  C_23
REMARK   15  A    between atoms: C_25  and  C_27
REMARK   16  A    between atoms: C_27  and  N_28
REMARK   17  A    between atoms: C_27  and  C_42
REMARK   18  A    between atoms: C_29  and  C_31
REMARK   19  A    between atoms: C_31  and  C_32
REMARK   20  A    between atoms: C_31  and  N_33
REMARK   21  A    between atoms: C_34  and  C_36
REMARK   22  A    between atoms: C_38  and  C_39
REMARK   23  A    between atoms: C_42  and  C_43
REMARK   24  A    between atoms: C_42  and  C_44
REMARK                            x       y       z     vdW  Elec       q    Type
REMARK                         _______ _______ _______ _____ _____    ______ ____
ROOT
ATOM      1  C   UNL     1      -1.125   0.626  -1.247  0.00  0.00    +0.000 C 
ENDROOT
BRANCH   1   3
ATOM      2  N   UNL     1      -3.291  -0.141  -0.351  0.00  0.00    +0.000 N 
ATOM      3  C   UNL     1      -1.984   0.190   0.051  0.00  0.00    +0.000 C 
ATOM      4  O   UNL     1      -1.807   0.931   1.045  0.00  0.00    +0.000 OA
ATOM      5  H   UNL     1      -3.442  -0.847  -1.020  0.00  0.00    +0.000 HD
BRANCH   2   6
ATOM      6  C   UNL     1      -4.504   0.629   0.279  0.00  0.00    +0.000 C 
BRANCH   6   8
ATOM      7  C   UNL     1      -5.285  -1.238   1.713  0.00  0.00    +0.000 C 
ATOM      8  C   UNL     1      -5.316  -0.751   0.509  0.00  0.00    +0.000 C 
BRANCH   7   9
ATOM      9  C   UNL     1      -6.419  -2.049   2.173  0.00  0.00    +0.000 C 
ATOM     10  O   UNL     1      -6.363  -3.315   2.113  0.00  0.00    +0.000 OA
BRANCH   9  11
ATOM     11  O   UNL     1      -7.707  -1.517   2.265  0.00  0.00    +0.000 OA
BRANCH  11  13
ATOM     12  C   UNL     1      -9.415  -1.986   0.686  0.00  0.00    +0.000 C 
ATOM     13  C   UNL     1      -8.870  -2.279   2.042  0.00  0.00    +0.000 C 
ENDBRANCH  11  13
ENDBRANCH   9  11
ENDBRANCH   7   9
ENDBRANCH   6   8
BRANCH   6  14
ATOM     14  C   UNL     1      -5.196   0.811  -1.190  0.00  0.00    +0.000 C 
BRANCH  14  15
ATOM     15  C   UNL     1      -6.431   1.844  -0.952  0.00  0.00    +0.000 C 
ATOM     16  C   UNL     1      -6.626   1.599   0.652  0.00  0.00    +0.000 C 
ATOM     17  C   UNL     1      -8.111   1.681   0.750  0.00  0.00    +0.000 C 
ATOM     18  N   UNL     1      -8.613   1.039  -0.434  0.00  0.00    +0.000 N 
ATOM     19  C   UNL     1      -7.517   0.699  -1.258  0.00  0.00    +0.000 C 
ATOM     20  O   UNL     1      -7.619   0.215  -2.417  0.00  0.00    +0.000 OA
ATOM     21  H   UNL     1      -9.560   0.865  -0.637  0.00  0.00    +0.000 HD
ENDBRANCH  14  15
ENDBRANCH   6  14
ENDBRANCH   2   6
ENDBRANCH   1   3
BRANCH   1  22
ATOM     22  N   UNL     1       0.284   0.249  -0.633  0.00  0.00    +0.000 N 
ATOM     23  C   UNL     1       1.042   1.341  -0.330  0.00  0.00    +0.000 C 
ATOM     24  O   UNL     1       0.557   2.416   0.129  0.00  0.00    +0.000 OA
ATOM     25  H   UNL     1       0.581  -0.677  -0.485  0.00  0.00    +0.000 HD
BRANCH  23  26
ATOM     26  C   UNL     1       2.627   1.470  -0.576  0.00  0.00    +0.000 C 
BRANCH  26  27
ATOM     27  N   UNL     1       2.954   0.101   0.139  0.00  0.00    +0.000 N 
ATOM     28  C   UNL     1       4.387   0.138   0.310  0.00  0.00    +0.000 C 
ATOM     29  O   UNL     1       4.912  -0.315  -0.694  0.00  0.00    +0.000 OA
ATOM     30  H   UNL     1       2.328  -0.610   0.405  0.00  0.00    +0.000 HD
BRANCH  28  31
ATOM     31  C   UNL     1       4.921  -0.272   1.771  0.00  0.00    +0.000 C 
ATOM     32  C   UNL     1       5.420   1.263   2.118  0.00  0.00    +0.000 C 
BRANCH  31  33
ATOM     33  N   UNL     1       6.356  -0.706   1.298  0.00  0.00    +0.000 N 
ATOM     34  C   UNL     1       7.098   0.122   0.464  0.00  0.00    +0.000 C 
ATOM     35  O   UNL     1       6.823   1.363   0.467  0.00  0.00    +0.000 OA
ATOM     36  H   UNL     1       6.730  -1.568   1.593  0.00  0.00    +0.000 HD
BRANCH  34  37
ATOM     37  C   UNL     1       8.512  -0.257   0.265  0.00  0.00    +0.000 A 
ATOM     38  C   UNL     1       9.416   0.322  -0.620  0.00  0.00    +0.000 A 
ATOM     39  C   UNL     1      10.684   0.346  -0.046  0.00  0.00    +0.000 A 
ATOM     40  C   UNL     1      11.643   1.476  -0.275  0.00  0.00    +0.000 C 
ATOM     41  O   UNL     1      10.492  -0.124   1.175  0.00  0.00    +0.000 OA
ATOM     42  N   UNL     1       9.322  -0.704   1.258  0.00  0.00    +0.000 NA
ENDBRANCH  34  37
ENDBRANCH  31  33
ENDBRANCH  28  31
ENDBRANCH  26  27
BRANCH  26  43
ATOM     43  C   UNL     1       2.571   0.868  -2.091  0.00  0.00    +0.000 C 
ATOM     44  C   UNL     1       2.493  -0.527  -2.212  0.00  0.00    +0.000 C 
ATOM     45  C   UNL     1       3.350   1.731  -2.973  0.00  0.00    +0.000 C 
ENDBRANCH  26  43
ENDBRANCH  23  26
ENDBRANCH   1  22
BRANCH   1  46
ATOM     46  C   UNL     1      -1.338  -0.831  -1.959  0.00  0.00    +0.000 C 
BRANCH  46  47
ATOM     47  C   UNL     1      -0.738  -1.908  -1.243  0.00  0.00    +0.000 C 
ATOM     48  C   UNL     1      -0.353  -3.013  -2.184  0.00  0.00    +0.000 C 
ATOM     49  C   UNL     1      -1.240  -2.447   0.014  0.00  0.00    +0.000 C 
ENDBRANCH  46  47
ENDBRANCH   1  46
TORSDOF 17
