REMARK  Name = 
REMARK  20 active torsions:
REMARK  status: ('A' for Active; 'I' for Inactive)
REMARK    1  A    between atoms: C_1  and  C_2
REMARK    2  A    between atoms: C_2  and  O_3
REMARK    3  A    between atoms: O_3  and  C_4
REMARK    4  A    between atoms: C_4  and  C_6
REMARK    5  A    between atoms: C_6  and  N_7
REMARK    6  A    between atoms: C_6  and  C_32
REMARK    7  A    between atoms: C_8  and  C_10
REMARK    8  A    between atoms: C_10  and  C_11
REMARK    9  A    between atoms: C_10  and  N_20
REMARK   10  A    between atoms: C_11  and  S_12
REMARK   11  A    between atoms: S_12  and  C_13
REMARK   12  A    between atoms: C_13  and  C_14
REMARK   13  A    between atoms: C_21  and  C_23
REMARK   14  A    between atoms: C_23  and  C_24
REMARK   15  A    between atoms: C_24  and  C_25
REMARK   16  A    between atoms: C_25  and  N_26
REMARK   17  A    between atoms: C_25  and  C_27
REMARK   18  A    between atoms: C_27  and  O_29
REMARK   19  A    between atoms: O_29  and  C_30
REMARK   20  A    between atoms: C_30  and  C_31
REMARK                            x       y       z     vdW  Elec       q    Type
REMARK                         _______ _______ _______ _____ _____    ______ ____
ROOT
ATOM      1  C   UNL     1      -0.375   1.194   0.824  0.00  0.00    +0.000 C 
ENDROOT
BRANCH   1   3
ATOM      2  N   UNL     1      -1.898  -0.631   0.292  0.00  0.00    +0.000 N 
ATOM      3  C   UNL     1      -0.553  -0.416   0.670  0.00  0.00    +0.000 C 
ATOM      4  O   UNL     1       0.004  -1.077   1.592  0.00  0.00    +0.000 OA
ATOM      5  H   UNL     1      -2.347  -0.084  -0.392  0.00  0.00    +0.000 HD
BRANCH   2   6
ATOM      6  C   UNL     1      -2.636  -1.819   1.050  0.00  0.00    +0.000 C 
BRANCH   6   7
ATOM      7  C   UNL     1      -1.640  -2.940   0.424  0.00  0.00    +0.000 A 
ATOM      8  C   UNL     1      -1.607  -4.102   1.186  0.00  0.00    +0.000 A 
ATOM      9  C   UNL     1      -1.616  -5.328   0.530  0.00  0.00    +0.000 A 
ATOM     10  C   UNL     1      -1.353  -5.305  -0.834  0.00  0.00    +0.000 A 
ATOM     11  C   UNL     1      -0.895  -4.138  -1.436  0.00  0.00    +0.000 A 
ATOM     12  C   UNL     1      -1.435  -2.970  -0.898  0.00  0.00    +0.000 A 
ENDBRANCH   6   7
BRANCH   6  13
ATOM     13  C   UNL     1      -3.769  -2.018  -0.101  0.00  0.00    +0.000 C 
ATOM     14  O   UNL     1      -3.537  -1.622  -1.236  0.00  0.00    +0.000 OA
BRANCH  13  15
ATOM     15  O   UNL     1      -4.622  -3.070   0.130  0.00  0.00    +0.000 OA
BRANCH  15  17
ATOM     16  C   UNL     1      -5.084  -3.692  -1.339  0.00  0.00    +0.000 C 
ATOM     17  C   UNL     1      -5.322  -3.655  -0.959  0.00  0.00    +0.000 C 
ENDBRANCH  15  17
ENDBRANCH  13  15
ENDBRANCH   6  13
ENDBRANCH   2   6
ENDBRANCH   1   3
BRANCH   1  18
ATOM     18  N   UNL     1       1.188   1.122   1.060  0.00  0.00    +0.000 N 
ATOM     19  C   UNL     1       1.928   0.256   0.248  0.00  0.00    +0.000 C 
ATOM     20  O   UNL     1       1.554   0.169  -0.961  0.00  0.00    +0.000 OA
ATOM     21  H   UNL     1       1.624   1.668   1.753  0.00  0.00    +0.000 HD
BRANCH  19  22
ATOM     22  C   UNL     1       3.360   0.020   0.615  0.00  0.00    +0.000 C 
BRANCH  22  23
ATOM     23  C   UNL     1       4.045  -0.687  -0.529  0.00  0.00    +0.000 C 
BRANCH  23  24
ATOM     24  C   UNL     1       5.095   0.500  -1.004  0.00  0.00    +0.000 C 
BRANCH  24  25
ATOM     25  N   UNL     1       5.014   0.036  -2.518  0.00  0.00    +0.000 NA
ATOM     26  H   UNL     1       5.103  -0.979  -2.568  0.00  0.00    +0.000 HD
ATOM     27  H   UNL     1       5.770   0.471  -3.047  0.00  0.00    +0.000 HD
ENDBRANCH  24  25
BRANCH  24  28
ATOM     28  C   UNL     1       6.381  -0.448  -0.715  0.00  0.00    +0.000 C 
ATOM     29  O   UNL     1       7.372  -0.140  -1.446  0.00  0.00    +0.000 OA
BRANCH  28  30
ATOM     30  O   UNL     1       6.652  -0.438   0.658  0.00  0.00    +0.000 OA
BRANCH  30  31
ATOM     31  C   UNL     1       7.958  -0.432   1.184  0.00  0.00    +0.000 C 
ATOM     32  C   UNL     1       8.382   0.930   1.691  0.00  0.00    +0.000 C 
ENDBRANCH  30  31
ENDBRANCH  28  30
ENDBRANCH  24  28
ENDBRANCH  23  24
ENDBRANCH  22  23
ENDBRANCH  19  22
ENDBRANCH   1  18
BRANCH   1  33
ATOM     33  C   UNL     1      -0.194   1.391  -0.810  0.00  0.00    +0.000 C 
BRANCH  33  34
ATOM     34  S   UNL     1      -1.706   2.266  -1.340  0.00  0.00    +0.000 S 
BRANCH  34  35
ATOM     35  C   UNL     1      -1.309   4.046  -1.272  0.00  0.00    +0.000 C 
BRANCH  35  36
ATOM     36  C   UNL     1      -2.335   4.757  -0.488  0.00  0.00    +0.000 A 
ATOM     37  C   UNL     1      -1.997   5.200   0.782  0.00  0.00    +0.000 A 
ATOM     38  C   UNL     1      -2.930   5.938   1.485  0.00  0.00    +0.000 A 
ATOM     39  C   UNL     1      -4.083   6.311   0.846  0.00  0.00    +0.000 A 
ATOM     40  C   UNL     1      -4.477   5.781  -0.377  0.00  0.00    +0.000 A 
ATOM     41  C   UNL     1      -3.559   5.012  -1.069  0.00  0.00    +0.000 A 
ENDBRANCH  35  36
ENDBRANCH  34  35
ENDBRANCH  33  34
ENDBRANCH   1  33
TORSDOF 18
