REMARK  Name = 
REMARK  20 active torsions:
REMARK  status: ('A' for Active; 'I' for Inactive)
REMARK    1  A    between atoms: C_1  and  C_2
REMARK    2  A    between atoms: C_2  and  C_3
REMARK    3  A    between atoms: C_2  and  C_4
REMARK    4  A    between atoms: C_4  and  C_5
REMARK    5  A    between atoms: C_5  and  C_6
REMARK    6  A    between atoms: N_8  and  C_9
REMARK    7  A    between atoms: C_9  and  C_10
REMARK    8  A    between atoms: C_9  and  C_28
REMARK    9  A    between atoms: N_12  and  C_13
REMARK   10  A    between atoms: C_13  and  C_14
REMARK   11  A    between atoms: C_13  and  C_21
REMARK   12  A    between atoms: C_14  and  C_15
REMARK   13  A    between atoms: C_15  and  C_16
REMARK   14  A    between atoms: C_16  and  N_17
REMARK   15  A    between atoms: N_17  and  C_18
REMARK   16  A    between atoms: C_18  and  N_19
REMARK   17  A    between atoms: C_18  and  N_20
REMARK   18  A    between atoms: C_21  and  C_23
REMARK   19  A    between atoms: C_28  and  C_29
REMARK   20  A    between atoms: C_28  and  C_30
REMARK                            x       y       z     vdW  Elec       q    Type
REMARK                         _______ _______ _______ _____ _____    ______ ____
ROOT
ATOM      1  C   UNL     1       2.245  -0.465  -0.451  0.00  0.00    +0.000 C 
ENDROOT
BRANCH   1   4
ATOM      2  C   UNL     1      -0.263  -0.057  -0.612  0.00  0.00    +0.000 C 
ATOM      3  O   UNL     1      -0.286   0.430   0.532  0.00  0.00    +0.000 OA
ATOM      4  N   UNL     1       0.764  -1.067  -0.595  0.00  0.00    +0.000 N 
ATOM      5  H   UNL     1       0.577  -2.031  -0.665  0.00  0.00    +0.000 HD
BRANCH   2   6
ATOM      6  C   UNL     1      -1.618  -0.848  -1.094  0.00  0.00    +0.000 C 
BRANCH   6   9
ATOM      7  C   UNL     1      -3.958  -0.413  -0.270  0.00  0.00    +0.000 C 
ATOM      8  O   UNL     1      -4.391  -0.376  -1.461  0.00  0.00    +0.000 OA
ATOM      9  N   UNL     1      -2.600  -0.074  -0.084  0.00  0.00    +0.000 N 
ATOM     10  H   UNL     1      -2.287   0.568   0.594  0.00  0.00    +0.000 HD
BRANCH   7  11
ATOM     11  C   UNL     1      -4.900  -0.079   0.827  0.00  0.00    +0.000 C 
BRANCH  11  12
ATOM     12  C   UNL     1      -5.694   1.183   0.528  0.00  0.00    +0.000 C 
BRANCH  12  14
ATOM     13  C   UNL     1      -7.998   1.472  -0.316  0.00  0.00    +0.000 C 
ATOM     14  C   UNL     1      -7.145   0.828   0.744  0.00  0.00    +0.000 C 
ATOM     15  C   UNL     1      -7.349  -0.676   0.754  0.00  0.00    +0.000 C 
ENDBRANCH  12  14
ENDBRANCH  11  12
ENDBRANCH   7  11
ENDBRANCH   6   9
BRANCH   6  16
ATOM     16  C   UNL     1      -1.916   0.274  -2.303  0.00  0.00    +0.000 C 
ATOM     17  C   UNL     1      -0.904  -0.034  -3.364  0.00  0.00    +0.000 C 
ATOM     18  C   UNL     1      -1.772   1.604  -1.656  0.00  0.00    +0.000 C 
ENDBRANCH   6  16
ENDBRANCH   2   6
ENDBRANCH   1   4
BRANCH   1  19
ATOM     19  C   UNL     1       2.587  -1.420   0.837  0.00  0.00    +0.000 C 
ATOM     20  O   UNL     1       1.728  -1.481   1.710  0.00  0.00    +0.000 OA
BRANCH  19  21
ATOM     21  C   UNL     1       3.724  -2.288   0.646  0.00  0.00    +0.000 A 
ATOM     22  N   UNL     1       3.997  -3.247   1.565  0.00  0.00    +0.000 NA
ATOM     23  C   UNL     1       5.203  -3.778   1.381  0.00  0.00    +0.000 A 
ATOM     24  C   UNL     1       5.386  -4.203   0.070  0.00  0.00    +0.000 A 
ATOM     25  S   UNL     1       4.454  -3.001  -0.734  0.00  0.00    +0.000 S 
ENDBRANCH  19  21
ENDBRANCH   1  19
BRANCH   1  26
ATOM     26  C   UNL     1       1.803   0.810   0.552  0.00  0.00    +0.000 C 
BRANCH  26  27
ATOM     27  C   UNL     1       2.981   0.954   1.479  0.00  0.00    +0.000 C 
BRANCH  27  28
ATOM     28  C   UNL     1       4.167   1.584   0.824  0.00  0.00    +0.000 C 
BRANCH  28  29
ATOM     29  N   UNL     1       4.003   2.976   0.519  0.00  0.00    +0.000 NA
ATOM     30  H   UNL     1       4.783   3.272  -0.069  0.00  0.00    +0.000 HD
BRANCH  29  31
ATOM     31  C   UNL     1       2.772   3.269  -0.173  0.00  0.00    +0.000 C 
BRANCH  31  32
ATOM     32  N   UNL     1       1.960   4.066   0.719  0.00  0.00    +0.000 NA
ATOM     33  H   UNL     1       2.459   4.923   0.958  0.00  0.00    +0.000 HD
ATOM     34  H   UNL     1       1.769   3.536   1.569  0.00  0.00    +0.000 HD
ENDBRANCH  31  32
BRANCH  31  35
ATOM     35  N   UNL     1       3.020   4.058  -1.346  0.00  0.00    +0.000 NA
ATOM     36  H   UNL     1       3.473   4.932  -1.078  0.00  0.00    +0.000 HD
ATOM     37  H   UNL     1       2.136   4.262  -1.812  0.00  0.00    +0.000 HD
ENDBRANCH  31  35
ENDBRANCH  29  31
ENDBRANCH  28  29
ENDBRANCH  27  28
ENDBRANCH  26  27
ENDBRANCH   1  26
TORSDOF 16
