REMARK  Name = 
REMARK  16 active torsions:
REMARK  status: ('A' for Active; 'I' for Inactive)
REMARK    1  A    between atoms: C_1  and  C_2
REMARK    2  A    between atoms: N_4  and  C_5
REMARK    3  A    between atoms: C_5  and  C_6
REMARK    4  A    between atoms: C_5  and  C_13
REMARK    5  A    between atoms: C_6  and  C_7
REMARK    6  A    between atoms: C_19  and  C_20
REMARK    7  A    between atoms: N_22  and  C_23
REMARK    8  A    between atoms: C_23  and  C_24
REMARK    9  A    between atoms: C_23  and  B_30
REMARK   10  A    between atoms: C_24  and  C_25
REMARK   11  A    between atoms: C_25  and  C_26
REMARK   12  A    between atoms: C_26  and  C_27
REMARK   13  A    between atoms: C_27  and  C_28
REMARK   14  A    between atoms: C_28  and  N_29
REMARK   15  A    between atoms: B_30  and  O_31
REMARK   16  A    between atoms: B_30  and  O_32
REMARK                            x       y       z     vdW  Elec       q    Type
REMARK                         _______ _______ _______ _____ _____    ______ ____
ROOT
ATOM      1  C   UNL     1       1.351  -0.097  -1.294  0.00  0.00    +0.000 C 
ATOM      2  O   UNL     1       0.576   0.776  -1.752  0.00  0.00    +0.000 OA
ATOM      3  N   UNL     1       0.931  -1.413  -0.977  0.00  0.00    +0.000 N 
ATOM      4  C   UNL     1       0.688  -2.138   0.218  0.00  0.00    +0.000 C 
ATOM      5  C   UNL     1       0.450  -3.548  -0.219  0.00  0.00    +0.000 C 
ATOM      6  C   UNL     1       0.518  -3.575  -1.710  0.00  0.00    +0.000 C 
ATOM      7  C   UNL     1      -0.081  -2.046  -2.045  0.00  0.00    +0.000 C 
ENDROOT
BRANCH   7   8
ATOM      8  C   UNL     1      -1.304  -2.186  -0.954  0.00  0.00    +0.000 C 
ATOM      9  O   UNL     1      -1.939  -3.248  -1.034  0.00  0.00    +0.000 OA
ATOM     10  N   UNL     1      -2.159  -1.029  -0.932  0.00  0.00    +0.000 N 
ATOM     11  H   UNL     1      -2.395  -0.422  -1.670  0.00  0.00    +0.000 HD
BRANCH  10  12
ATOM     12  C   UNL     1      -2.626  -0.979   0.588  0.00  0.00    +0.000 C 
BRANCH  12  13
ATOM     13  C   UNL     1      -3.427   0.448   0.355  0.00  0.00    +0.000 C 
BRANCH  13  14
ATOM     14  C   UNL     1      -4.739   0.231  -0.213  0.00  0.00    +0.000 C 
BRANCH  14  15
ATOM     15  C   UNL     1      -5.919   0.798   0.563  0.00  0.00    +0.000 C 
BRANCH  15  16
ATOM     16  C   UNL     1      -5.848   2.286   0.453  0.00  0.00    +0.000 C 
BRANCH  16  17
ATOM     17  C   UNL     1      -5.682   2.936   1.814  0.00  0.00    +0.000 C 
BRANCH  17  18
ATOM     18  N   UNL     1      -5.631   4.373   1.599  0.00  0.00    +0.000 NA
ATOM     19  H   UNL     1      -4.851   4.597   0.980  0.00  0.00    +0.000 HD
ATOM     20  H   UNL     1      -5.502   4.847   2.493  0.00  0.00    +0.000 HD
ENDBRANCH  17  18
ENDBRANCH  16  17
ENDBRANCH  15  16
ENDBRANCH  14  15
ENDBRANCH  13  14
ENDBRANCH  12  13
BRANCH  12  21
ATOM     21  B   UNL     1      -3.998  -2.002   0.350  0.00  0.00    +0.000 B 
BRANCH  21  22
ATOM     22  O   UNL     1      -4.548  -2.179  -0.935  0.00  0.00    +0.000 OA
ATOM     23  H   UNL     1      -4.386  -1.385  -1.468  0.00  0.00    +0.000 HD
ENDBRANCH  21  22
BRANCH  21  24
ATOM     24  O   UNL     1      -4.016  -2.949   1.464  0.00  0.00    +0.000 OA
ATOM     25  H   UNL     1      -3.561  -2.559   2.227  0.00  0.00    +0.000 HD
ENDBRANCH  21  24
ENDBRANCH  12  21
ENDBRANCH  10  12
ENDBRANCH   7   8
BRANCH   1  26
ATOM     26  C   UNL     1       2.204   0.400   0.019  0.00  0.00    +0.000 C 
BRANCH  26  30
ATOM     27  C   UNL     1       1.743   4.054  -1.043  0.00  0.00    +0.000 C 
ATOM     28  C   UNL     1       1.812   2.877  -0.283  0.00  0.00    +0.000 C 
ATOM     29  O   UNL     1       1.304   2.941   0.874  0.00  0.00    +0.000 OA
ATOM     30  N   UNL     1       2.631   1.780  -0.680  0.00  0.00    +0.000 N 
ATOM     31  H   UNL     1       3.378   1.860  -1.316  0.00  0.00    +0.000 HD
ENDBRANCH  26  30
BRANCH  26  32
ATOM     32  C   UNL     1       3.581  -0.369  -0.544  0.00  0.00    +0.000 C 
BRANCH  32  33
ATOM     33  C   UNL     1       4.680   0.166   0.258  0.00  0.00    +0.000 A 
ATOM     34  C   UNL     1       5.198   1.436   0.075  0.00  0.00    +0.000 A 
ATOM     35  C   UNL     1       5.867   2.001   1.152  0.00  0.00    +0.000 A 
ATOM     36  C   UNL     1       6.420   1.168   2.116  0.00  0.00    +0.000 A 
ATOM     37  C   UNL     1       6.415  -0.191   1.829  0.00  0.00    +0.000 A 
ATOM     38  C   UNL     1       5.547  -0.721   0.886  0.00  0.00    +0.000 A 
ENDBRANCH  32  33
ENDBRANCH  26  32
ENDBRANCH   1  26
TORSDOF 15
