REMARK  Name = 
REMARK  17 active torsions:
REMARK  status: ('A' for Active; 'I' for Inactive)
REMARK    1  A    between atoms: C_1  and  C_2
REMARK    2  A    between atoms: C_2  and  C_3
REMARK    3  A    between atoms: C_2  and  C_4
REMARK    4  A    between atoms: C_4  and  N_5
REMARK    5  A    between atoms: C_4  and  C_16
REMARK    6  A    between atoms: C_6  and  O_8
REMARK    7  A    between atoms: O_8  and  C_9
REMARK    8  A    between atoms: C_9  and  C_10
REMARK    9  A    between atoms: N_18  and  C_19
REMARK   10  A    between atoms: C_19  and  C_20
REMARK   11  A    between atoms: C_19  and  C_21
REMARK   12  A    between atoms: N_23  and  C_24
REMARK   13  A    between atoms: C_24  and  C_25
REMARK   14  A    between atoms: C_24  and  C_29
REMARK   15  A    between atoms: C_25  and  C_26
REMARK   16  A    between atoms: C_26  and  O_28
REMARK   17  A    between atoms: C_29  and  C_31
REMARK                            x       y       z     vdW  Elec       q    Type
REMARK                         _______ _______ _______ _____ _____    ______ ____
ROOT
ATOM      1  C   UNL     1       0.215  -0.099   0.158  0.00  0.00    +0.000 C 
ATOM      2  O   UNL     1      -0.344  -0.818   1.047  0.00  0.00    +0.000 OA
ATOM      3  N   UNL     1      -0.556   0.252  -0.889  0.00  0.00    +0.000 N 
ATOM      4  H   UNL     1      -0.268   1.026  -1.425  0.00  0.00    +0.000 HD
ENDROOT
BRANCH   3   5
ATOM      5  C   UNL     1      -1.878  -0.474  -1.322  0.00  0.00    +0.000 C 
ATOM      6  C   UNL     1      -1.438  -1.963  -0.780  0.00  0.00    +0.000 C 
BRANCH   5   7
ATOM      7  C   UNL     1      -2.692  -0.132   0.037  0.00  0.00    +0.000 C 
ATOM      8  O   UNL     1      -3.179   1.037   0.072  0.00  0.00    +0.000 OA
ATOM      9  N   UNL     1      -3.502  -1.059   0.605  0.00  0.00    +0.000 N 
ATOM     10  H   UNL     1      -3.062  -1.806   1.071  0.00  0.00    +0.000 HD
BRANCH   9  11
ATOM     11  C   UNL     1      -5.073  -1.059   0.595  0.00  0.00    +0.000 C 
BRANCH  11  12
ATOM     12  C   UNL     1      -5.272   0.147  -0.462  0.00  0.00    +0.000 C 
ATOM     13  O   UNL     1      -5.358  -0.397  -1.565  0.00  0.00    +0.000 OA
BRANCH  12  14
ATOM     14  C   UNL     1      -6.279   1.163  -0.195  0.00  0.00    +0.000 C 
ATOM     15  F   UNL     1      -6.167   2.047  -1.242  0.00  0.00    +0.000 F 
ENDBRANCH  12  14
ENDBRANCH  11  12
BRANCH  11  16
ATOM     16  C   UNL     1      -5.180  -0.061   1.902  0.00  0.00    +0.000 C 
BRANCH  16  17
ATOM     17  C   UNL     1      -6.636  -0.174   2.216  0.00  0.00    +0.000 C 
ATOM     18  O   UNL     1      -7.391  -1.066   1.735  0.00  0.00    +0.000 OA
BRANCH  17  19
ATOM     19  O   UNL     1      -7.174   0.489   3.317  0.00  0.00    +0.000 OA
ATOM     20  H   UNL     1      -6.686   1.167   3.741  0.00  0.00    +0.000 HD
ENDBRANCH  17  19
ENDBRANCH  16  17
ENDBRANCH  11  16
ENDBRANCH   9  11
ENDBRANCH   5   7
ENDBRANCH   3   5
BRANCH   1  21
ATOM     21  C   UNL     1       1.786  -0.432  -0.022  0.00  0.00    +0.000 C 
BRANCH  21  22
ATOM     22  N   UNL     1       2.125   0.936  -0.726  0.00  0.00    +0.000 N 
ATOM     23  C   UNL     1       3.072   0.762  -1.778  0.00  0.00    +0.000 C 
ATOM     24  O   UNL     1       2.753  -0.044  -2.678  0.00  0.00    +0.000 OA
ATOM     25  H   UNL     1       1.732   1.802  -0.472  0.00  0.00    +0.000 HD
BRANCH  23  26
ATOM     26  O   UNL     1       4.297   1.380  -1.894  0.00  0.00    +0.000 OA
BRANCH  26  27
ATOM     27  C   UNL     1       5.432   0.739  -2.482  0.00  0.00    +0.000 C 
BRANCH  27  28
ATOM     28  C   UNL     1       6.228   0.215  -1.328  0.00  0.00    +0.000 A 
ATOM     29  C   UNL     1       7.487   0.774  -1.175  0.00  0.00    +0.000 A 
ATOM     30  C   UNL     1       8.233   0.596  -0.025  0.00  0.00    +0.000 A 
ATOM     31  C   UNL     1       7.562   0.085   1.067  0.00  0.00    +0.000 A 
ATOM     32  C   UNL     1       6.309  -0.484   0.921  0.00  0.00    +0.000 A 
ATOM     33  C   UNL     1       5.709  -0.564  -0.331  0.00  0.00    +0.000 A 
ENDBRANCH  27  28
ENDBRANCH  26  27
ENDBRANCH  23  26
ENDBRANCH  21  22
BRANCH  21  35
ATOM     34  C   UNL     1       2.491   0.560   1.443  0.00  0.00    +0.000 C 
ATOM     35  C   UNL     1       2.152   0.171   1.462  0.00  0.00    +0.000 C 
ATOM     36  C   UNL     1       2.268  -1.089   2.317  0.00  0.00    +0.000 C 
ENDBRANCH  21  35
ENDBRANCH   1  21
TORSDOF 14
