REMARK  Name = 123982
REMARK  10 active torsions:
REMARK  status: ('A' for Active; 'I' for Inactive)
REMARK    1  A    between atoms: O_3  and  C_20
REMARK    2  A    between atoms: O_5  and  N_7
REMARK    3  A    between atoms: N_6  and  CA_13
REMARK    4  A    between atoms: C_8  and  C_9
REMARK    5  A    between atoms: C_8  and  C_10
REMARK    6  A    between atoms: C_8  and  C_11
REMARK    7  A    between atoms: C_9  and  C_12
REMARK    8  A    between atoms: C_10  and  C_14
REMARK    9  A    between atoms: CA_13  and  CB_17
REMARK   10  A    between atoms: CA_13  and  C_20
REMARK                            x       y       z     vdW  Elec       q    Type
REMARK                         _______ _______ _______ _____ _____    ______ ____
ROOT
ATOM      1  C   UNL     1       0.441  -1.369   0.302  0.00  0.00    +0.000 C 
ENDROOT
BRANCH   1   4
ATOM      2  O   UNL     1       0.850   0.124   2.171  0.00  0.00    +0.000 OA
ATOM      3  N   UNL     1       0.593   1.040   0.053  0.00  0.00    +0.000 N 
ATOM      4  C   ACE A   0       0.647  -0.004   0.966  0.00  0.00    +0.000 C 
ATOM      5  H   UNL     1       0.438   0.836  -0.929  0.00  0.00    +0.000 HD
BRANCH   3   6
ATOM      6  CA  UNL     1       0.773   2.426   0.423  0.00  0.00    +0.000 C 
ATOM      7  CB  UNL     1       2.242   2.814   0.344  0.00  0.00    +0.000 C 
BRANCH   6   9
ATOM      8  OXT UNL     1      -0.124   4.564  -0.259  0.00  0.00    +0.000 OA
ATOM      9  C   UNL     1      -0.067   3.352  -0.440  0.00  0.00    +0.000 C 
BRANCH   9  10
ATOM     10  O   UNL     1      -0.762   2.734  -1.424  0.00  0.00    +0.000 OA
ATOM     11  H   UNL     1      -1.294   3.367  -1.952  0.00  0.00    +0.000 HD
ENDBRANCH   9  10
ENDBRANCH   6   9
ENDBRANCH   3   6
ENDBRANCH   1   4
BRANCH   1  12
ATOM     12  C   UNL     1      -0.828  -2.047   0.863  0.00  0.00    +0.000 C 
BRANCH  12  13
ATOM     13  C   UNL     1      -2.115  -1.473   0.326  0.00  0.00    +0.000 A 
ATOM     14  C   UNL     1      -2.719  -0.417   0.992  0.00  0.00    +0.000 A 
ATOM     15  C   UNL     1      -2.672  -2.010  -0.824  0.00  0.00    +0.000 A 
ATOM     16  C   UNL     1      -3.910   0.114   0.496  0.00  0.00    +0.000 A 
ATOM     17  C   UNL     1      -3.863  -1.478  -1.321  0.00  0.00    +0.000 A 
ATOM     18  C   UNL     1      -4.481  -0.416  -0.660  0.00  0.00    +0.000 A 
ENDBRANCH  12  13
ENDBRANCH   1  12
BRANCH   1  19
ATOM     19  C   UNL     1       1.704  -2.229   0.510  0.00  0.00    +0.000 C 
BRANCH  19  22
ATOM     20  O   UNL     1       3.701  -0.868   0.685  0.00  0.00    +0.000 OA
ATOM     21  N   UNL     1       3.221  -1.906  -1.319  0.00  0.00    +0.000 N 
ATOM     22  C   UNL     1       2.977  -1.578  -0.007  0.00  0.00    +0.000 C 
ATOM     23  H   UNL     1       2.713  -2.582  -1.877  0.00  0.00    +0.000 HD
BRANCH  21  24
ATOM     24  O   UNL     1       4.392  -1.373  -1.876  0.00  0.00    +0.000 OA
ATOM     25  H   UNL     1       4.032  -0.576  -2.301  0.00  0.00    +0.000 HD
ENDBRANCH  21  24
ENDBRANCH  19  22
ENDBRANCH   1  19
TORSDOF 9
