REMARK  Name = 
REMARK  20 active torsions:
REMARK  status: ('A' for Active; 'I' for Inactive)
REMARK    1  A    between atoms: C_1  and  C_2
REMARK    2  A    between atoms: C_2  and  O_3
REMARK    3  A    between atoms: O_3  and  C_4
REMARK    4  A    between atoms: C_4  and  C_6
REMARK    5  A    between atoms: C_6  and  C_7
REMARK    6  A    between atoms: C_6  and  N_8
REMARK    7  A    between atoms: C_9  and  C_11
REMARK    8  A    between atoms: C_11  and  C_12
REMARK    9  A    between atoms: C_11  and  N_16
REMARK   10  A    between atoms: C_12  and  C_13
REMARK   11  A    between atoms: C_13  and  C_14
REMARK   12  A    between atoms: C_13  and  C_15
REMARK   13  A    between atoms: C_17  and  C_19
REMARK   14  A    between atoms: C_19  and  C_20
REMARK   15  A    between atoms: C_19  and  C_25
REMARK   16  A    between atoms: C_20  and  C_21
REMARK   17  A    between atoms: N_23  and  O_24
REMARK   18  A    between atoms: C_25  and  C_26
REMARK   19  A    between atoms: C_26  and  C_27
REMARK   20  A    between atoms: C_26  and  C_28
REMARK                            x       y       z     vdW  Elec       q    Type
REMARK                         _______ _______ _______ _____ _____    ______ ____
ROOT
ATOM      1  C   UNL     1       0.366   0.315  -0.846  0.00  0.00    +0.000 C 
ENDROOT
BRANCH   1   3
ATOM      2  N   UNL     1       2.509  -1.122  -1.295  0.00  0.00    +0.000 N 
ATOM      3  C   UNL     1       1.182  -1.069  -0.727  0.00  0.00    +0.000 C 
ATOM      4  O   UNL     1       1.370  -1.637   0.344  0.00  0.00    +0.000 OA
ATOM      5  H   UNL     1       2.663  -1.542  -2.172  0.00  0.00    +0.000 HD
BRANCH   2   6
ATOM      6  C   UNL     1       3.709  -0.491  -0.479  0.00  0.00    +0.000 C 
ATOM      7  C   UNL     1       3.361  -1.167   0.984  0.00  0.00    +0.000 C 
BRANCH   6   8
ATOM      8  C   UNL     1       4.819  -1.595  -0.880  0.00  0.00    +0.000 C 
ATOM      9  O   UNL     1       4.990  -2.595  -0.153  0.00  0.00    +0.000 OA
BRANCH   8  10
ATOM     10  O   UNL     1       6.028  -0.960  -1.209  0.00  0.00    +0.000 OA
BRANCH  10  12
ATOM     11  C   UNL     1       7.229  -1.767   0.763  0.00  0.00    +0.000 C 
ATOM     12  C   UNL     1       7.223  -0.981  -0.502  0.00  0.00    +0.000 C 
ENDBRANCH  10  12
ENDBRANCH   8  10
ENDBRANCH   6   8
ENDBRANCH   2   6
ENDBRANCH   1   3
BRANCH   1  13
ATOM     13  N   UNL     1      -1.093  -0.262  -1.104  0.00  0.00    +0.000 N 
ATOM     14  C   UNL     1      -1.747   1.012  -1.309  0.00  0.00    +0.000 C 
ATOM     15  O   UNL     1      -1.406   1.388  -2.486  0.00  0.00    +0.000 OA
ATOM     16  H   UNL     1      -1.438  -1.183  -1.119  0.00  0.00    +0.000 HD
BRANCH  14  17
ATOM     17  C   UNL     1      -3.338   1.133  -1.316  0.00  0.00    +0.000 C 
BRANCH  17  18
ATOM     18  C   UNL     1      -3.527   1.135   0.300  0.00  0.00    +0.000 C 
BRANCH  18  19
ATOM     19  C   UNL     1      -4.096  -0.134   0.723  0.00  0.00    +0.000 C 
ATOM     20  O   UNL     1      -3.643  -0.577   1.824  0.00  0.00    +0.000 OA
ATOM     21  N   UNL     1      -5.018  -0.888  -0.033  0.00  0.00    +0.000 N 
ATOM     22  H   UNL     1      -5.392  -0.541  -0.874  0.00  0.00    +0.000 HD
BRANCH  21  23
ATOM     23  O   UNL     1      -5.366  -2.095   0.436  0.00  0.00    +0.000 OA
ATOM     24  H   UNL     1      -4.899  -2.265   1.270  0.00  0.00    +0.000 HD
ENDBRANCH  21  23
ENDBRANCH  18  19
ENDBRANCH  17  18
BRANCH  17  25
ATOM     25  C   UNL     1      -3.311   2.771  -1.369  0.00  0.00    +0.000 C 
BRANCH  25  26
ATOM     26  C   UNL     1      -2.794   3.332  -0.118  0.00  0.00    +0.000 C 
ATOM     27  C   UNL     1      -1.689   4.285  -0.174  0.00  0.00    +0.000 C 
ATOM     28  C   UNL     1      -3.822   3.768   0.894  0.00  0.00    +0.000 C 
ENDBRANCH  25  26
ENDBRANCH  17  25
ENDBRANCH  14  17
ENDBRANCH   1  13
BRANCH   1  29
ATOM     29  C   UNL     1       0.023   0.527   0.733  0.00  0.00    +0.000 C 
BRANCH  29  30
ATOM     30  C   UNL     1      -0.393  -0.601   1.496  0.00  0.00    +0.000 C 
ATOM     31  C   UNL     1      -1.394  -1.574   1.186  0.00  0.00    +0.000 C 
ATOM     32  C   UNL     1      -0.175  -0.151   2.927  0.00  0.00    +0.000 C 
ENDBRANCH  29  30
ENDBRANCH   1  29
TORSDOF 14
