REMARK  Name = 
REMARK  34 active torsions:
REMARK  status: ('A' for Active; 'I' for Inactive)
REMARK    1  A    between atoms: O_2  and  C_30
REMARK    2  A    between atoms: OH_9  and  CZ_62
REMARK    3  A    between atoms: OD1_10  and  CG_64
REMARK    4  A    between atoms: N_13  and  CA_29
REMARK    5  A    between atoms: N_14  and  CA_31
REMARK    6  A    between atoms: N_16  and  CA_38
REMARK    7  A    between atoms: N_17  and  C_42
REMARK    8  A    between atoms: N_19  and  CA_48
REMARK    9  A    between atoms: NE_20  and  CD_57
REMARK   10  A    between atoms: N_21  and  CA_61
REMARK   11  A    between atoms: CA_24  and  C_30
REMARK   12  A    between atoms: C_28  and  CA_29
REMARK   13  A    between atoms: CA_29  and  CB_32
REMARK   14  A    between atoms: CA_31  and  CB_33
REMARK   15  A    between atoms: CA_31  and  C_34
REMARK   16  A    between atoms: CB_32  and  CG_36
REMARK   17  A    between atoms: CB_33  and  CG1_35
REMARK   18  A    between atoms: CB_33  and  CG2_37
REMARK   19  A    between atoms: CG1_35  and  CD1_40
REMARK   20  A    between atoms: CA_38  and  C_39
REMARK   21  A    between atoms: CA_38  and  CB_41
REMARK   22  A    between atoms: CB_41  and  CG_47
REMARK   23  A    between atoms: C_42  and  C_44
REMARK   24  A    between atoms: C_42  and  C_45
REMARK   25  A    between atoms: C_44  and  C_46
REMARK   26  A    between atoms: C_46  and  C_52
REMARK   27  A    between atoms: CA_48  and  C_50
REMARK   28  A    between atoms: CA_48  and  CB_51
REMARK   29  A    between atoms: CB_51  and  CG_53
REMARK   30  A    between atoms: C_52  and  C_56
REMARK   31  A    between atoms: CG_53  and  CD_57
REMARK   32  A    between atoms: C_58  and  CA_61
REMARK   33  A    between atoms: CA_61  and  CB_63
REMARK   34  A    between atoms: CB_63  and  CG_64
REMARK                            x       y       z     vdW  Elec       q    Type
REMARK                         _______ _______ _______ _____ _____    ______ ____
ROOT
ATOM      1  CA  TYR A   4      -1.848  -1.708   0.000  0.00  0.00    +0.000 C 
ENDROOT
BRANCH   1   4
ATOM      2  O   TYR A   4      -1.133  -0.471   0.000  0.00  0.00    +0.000 OA
ATOM      3  N   ILE A   5      -2.562  -0.471   0.000  0.00  0.00    +0.000 N 
ATOM      4  C   TYR A   4      -1.848  -0.883   0.000  0.00  0.00    +0.000 C 
ATOM      5  H   ILE A   5      -3.005  -0.727   0.000  0.00  0.00    +0.000 HD
BRANCH   3   6
ATOM      6  CA  ILE A   5      -2.562   0.354   0.000  0.00  0.00    +0.000 C 
BRANCH   6   9
ATOM      7  O   ILE A   5      -3.991   0.354   0.000  0.00  0.00    +0.000 OA
ATOM      8  N   HIS A   6      -3.277   1.591   0.000  0.00  0.00    +0.000 N 
ATOM      9  C   ILE A   5      -3.277   0.766   0.000  0.00  0.00    +0.000 C 
ATOM     10  H   HIS A   6      -2.424   2.084   0.000  0.00  0.00    +0.000 HD
BRANCH   8  11
ATOM     11  CA  HIS A   6      -3.991   2.004   0.000  0.00  0.00    +0.000 C 
BRANCH  11  18
ATOM     12  O   HIS A   6      -4.706   3.241   0.000  0.00  0.00    +0.000 OA
ATOM     13  N   PRO A   7      -3.277   3.241   0.000  0.00  0.00    +0.000 N 
ATOM     14  CA  PRO A   7      -3.191   4.062   0.000  0.00  0.00    +0.000 C 
ATOM     15  CB  PRO A   7      -2.384   4.234   0.000  0.00  0.00    +0.000 C 
ATOM     16  CG  PRO A   7      -1.971   3.519   0.000  0.00  0.00    +0.000 C 
ATOM     17  CD  PRO A   7      -2.523   2.906   0.000  0.00  0.00    +0.000 C 
ATOM     18  C   HIS A   6      -3.991   2.829   0.000  0.00  0.00    +0.000 C 
BRANCH  14  20
ATOM     19  OXT PRO A   7      -4.588   4.359   0.000  0.00  0.00    +0.000 OA
ATOM     20  C   PRO A   7      -3.804   4.614   0.000  0.00  0.00    +0.000 C 
BRANCH  20  21
ATOM     21  O   PRO A   7      -3.632   5.421   0.000  0.00  0.00    +0.000 OA
ATOM     22  H   PRO A   7      -2.741   5.711   0.000  0.00  0.00    +0.000 HD
ENDBRANCH  20  21
ENDBRANCH  14  20
ENDBRANCH  11  18
BRANCH  11  23
ATOM     23  CB  HIS A   6      -4.706   1.591   0.000  0.00  0.00    +0.000 C 
BRANCH  23  26
ATOM     24  ND1 HIS A   6      -6.174   1.668   0.000  0.00  0.00    +0.000 N 
ATOM     25  NE2 HIS A   6      -6.313   2.996   0.000  0.00  0.00    +0.000 NA
ATOM     26  CG  HIS A   6      -5.420   2.004   0.000  0.00  0.00    +0.000 A 
ATOM     27  CD2 HIS A   6      -5.506   2.825   0.000  0.00  0.00    +0.000 A 
ATOM     28  CE1 HIS A   6      -6.726   2.281   0.000  0.00  0.00    +0.000 A 
ATOM     29  HD1 HIS A   6      -6.379   0.705   0.000  0.00  0.00    +0.000 HD
ENDBRANCH  23  26
ENDBRANCH  11  23
ENDBRANCH   8  11
ENDBRANCH   6   9
BRANCH   6  30
ATOM     30  CB  ILE A   5      -1.848   0.766   0.000  0.00  0.00    +0.000 C 
ATOM     31  CG2 ILE A   5      -1.133   0.354   0.000  0.00  0.00    +0.000 C 
BRANCH  30  32
ATOM     32  CG1 ILE A   5      -1.848   1.591   0.000  0.00  0.00    +0.000 C 
ATOM     33  CD1 ILE A   5      -1.133   2.004   0.000  0.00  0.00    +0.000 C 
ENDBRANCH  30  32
ENDBRANCH   6  30
ENDBRANCH   3   6
ENDBRANCH   1   4
BRANCH   1  35
ATOM     34  O   UNK A   3      -0.419  -0.883   0.000  0.00  0.00    +0.000 OA
ATOM     35  N   TYR A   4      -1.133  -2.121   0.000  0.00  0.00    +0.000 N 
ATOM     36  C   UNK A   3      -0.419  -1.708   0.000  0.00  0.00    +0.000 C 
ATOM     37  H   TYR A   4      -1.133  -3.105   0.000  0.00  0.00    +0.000 HD
BRANCH  36  38
ATOM     38  C   UNK A   3       0.296  -2.121   0.000  0.00  0.00    +0.000 C 
BRANCH  38  40
ATOM     39  O   ARG A   2       1.724  -2.946   0.000  0.00  0.00    +0.000 OA
ATOM     40  N   UNK A   3       1.010  -1.708   0.000  0.00  0.00    +0.000 N 
ATOM     41  C   ARG A   2       1.724  -2.121   0.000  0.00  0.00    +0.000 C 
ATOM     42  H   UNK A   3       1.010  -0.724   0.000  0.00  0.00    +0.000 HD
BRANCH  41  43
ATOM     43  CA  ARG A   2       2.439  -1.708   0.000  0.00  0.00    +0.000 C 
BRANCH  43  45
ATOM     44  O   ASP A   1       3.868  -0.883   0.000  0.00  0.00    +0.000 OA
ATOM     45  N   ARG A   2       3.154  -2.121   0.000  0.00  0.00    +0.000 N 
ATOM     46  C   ASP A   1       3.868  -1.708   0.000  0.00  0.00    +0.000 C 
ATOM     47  H   ARG A   2       3.153  -3.105   0.000  0.00  0.00    +0.000 HD
BRANCH  46  48
ATOM     48  CA  ASP A   1       4.582  -2.121   0.000  0.00  0.00    +0.000 C 
BRANCH  48  49
ATOM     49  N   ASP A   1       4.582  -2.946   0.000  0.00  0.00    +0.000 NA
ATOM     50  H1  ASP A   1       3.699  -3.456   0.000  0.00  0.00    +0.000 HD
ATOM     51  H2  ASP A   1       5.466  -3.456   0.000  0.00  0.00    +0.000 HD
ENDBRANCH  48  49
BRANCH  48  52
ATOM     52  CB  ASP A   1       5.297  -1.708   0.000  0.00  0.00    +0.000 C 
BRANCH  52  54
ATOM     53  OD2 ASP A   1       6.011  -2.946   0.000  0.00  0.00    +0.000 OA
ATOM     54  CG  ASP A   1       6.011  -2.121   0.000  0.00  0.00    +0.000 C 
BRANCH  54  55
ATOM     55  OD1 ASP A   1       6.726  -1.708   0.000  0.00  0.00    +0.000 OA
ATOM     56  HD1 ASP A   1       7.537  -2.177   0.000  0.00  0.00    +0.000 HD
ENDBRANCH  54  55
ENDBRANCH  52  54
ENDBRANCH  48  52
ENDBRANCH  46  48
ENDBRANCH  43  45
BRANCH  43  57
ATOM     57  CB  ARG A   2       2.439  -0.883   0.000  0.00  0.00    +0.000 C 
BRANCH  57  58
ATOM     58  CG  ARG A   2       3.154  -0.471   0.000  0.00  0.00    +0.000 C 
BRANCH  58  59
ATOM     59  CD  ARG A   2       3.154   0.354   0.000  0.00  0.00    +0.000 C 
BRANCH  59  60
ATOM     60  NE  ARG A   2       3.868   0.766   0.000  0.00  0.00    +0.000 NA
ATOM     61  NH1 ARG A   2       3.154   2.004   0.000  0.00  0.00    +0.000 N 
ATOM     62  NH2 ARG A   2       4.582   2.004   0.000  0.00  0.00    +0.000 N 
ATOM     63  CZ  ARG A   2       3.868   1.591   0.000  0.00  0.00    +0.000 C 
ATOM     64 HH11 ARG A   2       3.153   2.988   0.000  0.00  0.00    +0.000 HD
ATOM     65 HH12 ARG A   2       2.301   1.512   0.000  0.00  0.00    +0.000 HD
ATOM     66 HH21 ARG A   2       5.435   1.512   0.000  0.00  0.00    +0.000 HD
ATOM     67 HH22 ARG A   2       4.583   2.988   0.000  0.00  0.00    +0.000 HD
ENDBRANCH  59  60
ENDBRANCH  58  59
ENDBRANCH  57  58
ENDBRANCH  43  57
ENDBRANCH  41  43
ENDBRANCH  38  40
BRANCH  38  68
ATOM     68  C   UNK A   3       0.296  -2.946   0.000  0.00  0.00    +0.000 C 
BRANCH  68  69
ATOM     69  C   UNK A   3       1.010  -3.358   0.000  0.00  0.00    +0.000 C 
BRANCH  69  70
ATOM     70  C   UNK A   3       1.010  -4.184   0.000  0.00  0.00    +0.000 C 
ATOM     71  C   UNK A   3       1.724  -4.596   0.000  0.00  0.00    +0.000 C 
ENDBRANCH  69  70
ENDBRANCH  68  69
ENDBRANCH  38  68
ENDBRANCH  36  38
ENDBRANCH   1  35
BRANCH   1  72
ATOM     72  CB  TYR A   4      -2.562  -2.121   0.000  0.00  0.00    +0.000 C 
BRANCH  72  73
ATOM     73  CG  TYR A   4      -2.562  -2.946   0.000  0.00  0.00    +0.000 A 
ATOM     74  CD1 TYR A   4      -1.848  -3.358   0.000  0.00  0.00    +0.000 A 
ATOM     75  CD2 TYR A   4      -3.277  -3.358   0.000  0.00  0.00    +0.000 A 
ATOM     76  CE1 TYR A   4      -1.848  -4.184   0.000  0.00  0.00    +0.000 A 
ATOM     77  CE2 TYR A   4      -3.277  -4.184   0.000  0.00  0.00    +0.000 A 
ATOM     78  CZ  TYR A   4      -2.562  -4.596   0.000  0.00  0.00    +0.000 A 
BRANCH  78  79
ATOM     79  OH  TYR A   4      -2.562  -5.421   0.000  0.00  0.00    +0.000 OA
ATOM     80  HH  TYR A   4      -3.374  -5.890   0.000  0.00  0.00    +0.000 HD
ENDBRANCH  78  79
ENDBRANCH  72  73
ENDBRANCH   1  72
TORSDOF 31
