REMARK  Name = 49802864
REMARK  15 active torsions:
REMARK  status: ('A' for Active; 'I' for Inactive)
REMARK    1  A    between atoms: OE1_5  and  CD_24
REMARK    2  A    between atoms: O_7  and  C_26
REMARK    3  A    between atoms: N_9  and  CA_18
REMARK    4  A    between atoms: N_10  and  CA_23
REMARK    5  A    between atoms: C_11  and  C_12
REMARK    6  A    between atoms: C_12  and  C_13
REMARK    7  A    between atoms: C_13  and  C_15
REMARK    8  A    between atoms: C_15  and  C_16
REMARK    9  A    between atoms: C_16  and  C_20
REMARK   10  A    between atoms: CA_18  and  CB_19
REMARK   11  A    between atoms: CA_18  and  C_21
REMARK   12  A    between atoms: CB_19  and  CG_22
REMARK   13  A    between atoms: CG_22  and  CD_24
REMARK   14  A    between atoms: CA_23  and  CB_25
REMARK   15  A    between atoms: CA_23  and  C_26
REMARK                            x       y       z     vdW  Elec       q    Type
REMARK                         _______ _______ _______ _____ _____    ______ ____
ROOT
ATOM      1  CA  UNL     1       1.460   1.024   0.700  0.00  0.00    +0.000 C 
ENDROOT
BRANCH   1   3
ATOM      2  O   UNL     1      -0.305   2.843   2.035  0.00  0.00    +0.000 OA
ATOM      3  N   UNL     1       0.501   1.903   0.074  0.00  0.00    +0.000 N 
ATOM      4  C   ACE A   0      -0.312   2.751   0.811  0.00  0.00    +0.000 C 
ATOM      5  H   UNL     1       0.438   1.906  -0.940  0.00  0.00    +0.000 HD
BRANCH   4   6
ATOM      6  C   UNL     1      -1.209   3.588  -0.086  0.00  0.00    +0.000 C 
BRANCH   6   7
ATOM      7  C   UNL     1      -2.147   2.761  -0.963  0.00  0.00    +0.000 C 
BRANCH   7   8
ATOM      8  C   UNL     1      -3.041   1.826  -0.143  0.00  0.00    +0.000 C 
BRANCH   8   9
ATOM      9  C   UNL     1      -3.987   1.032  -1.044  0.00  0.00    +0.000 C 
BRANCH   9  12
ATOM     10  S   UNL     1      -6.017  -0.806  -1.326  0.00  0.00    +0.000 S 
ATOM     11  S   UNL     1      -6.150  -2.498  -0.175  0.00  0.00    +0.000 S 
ATOM     12  C   UNL     1      -4.897   0.123  -0.234  0.00  0.00    +0.000 C 
ATOM     13  C   UNL     1      -4.111  -0.920   0.565  0.00  0.00    +0.000 C 
ATOM     14  C   UNL     1      -5.071  -1.939   1.166  0.00  0.00    +0.000 C 
ENDBRANCH   9  12
ENDBRANCH   8   9
ENDBRANCH   7   8
ENDBRANCH   6   7
ENDBRANCH   4   6
ENDBRANCH   1   3
BRANCH   1  17
ATOM     15  O   UNL     1       2.587   1.421  -1.404  0.00  0.00    +0.000 OA
ATOM     16  N   UNL     1       3.669   0.161   0.219  0.00  0.00    +0.000 N 
ATOM     17  C   UNL     1       2.618   0.914  -0.284  0.00  0.00    +0.000 C 
ATOM     18  H   UNL     1       3.618  -0.182   1.173  0.00  0.00    +0.000 HD
BRANCH  16  19
ATOM     19  CA  UNL     1       4.872  -0.119  -0.532  0.00  0.00    +0.000 C 
ATOM     20  CB  UNL     1       5.913   0.964  -0.296  0.00  0.00    +0.000 C 
BRANCH  19  22
ATOM     21  OXT UNL     1       6.421  -1.960  -0.756  0.00  0.00    +0.000 OA
ATOM     22  C   UNL     1       5.442  -1.485  -0.190  0.00  0.00    +0.000 C 
BRANCH  22  23
ATOM     23  O   UNL     1       4.776  -2.150   0.785  0.00  0.00    +0.000 OA
ATOM     24  H   UNL     1       5.175  -3.027   0.969  0.00  0.00    +0.000 HD
ENDBRANCH  22  23
ENDBRANCH  19  22
ENDBRANCH  16  19
ENDBRANCH   1  17
BRANCH   1  25
ATOM     25  CB  UNL     1       0.831  -0.343   0.993  0.00  0.00    +0.000 C 
BRANCH  25  26
ATOM     26  CG  UNL     1       0.202  -1.021  -0.227  0.00  0.00    +0.000 C 
BRANCH  26  28
ATOM     27  OE2 UNL     1      -0.530  -2.846   1.211  0.00  0.00    +0.000 OA
ATOM     28  CD  UNL     1      -0.471  -2.336   0.101  0.00  0.00    +0.000 C 
BRANCH  28  29
ATOM     29  OE1 UNL     1      -1.045  -2.889  -0.999  0.00  0.00    +0.000 OA
ATOM     30  HE1 UNL     1      -1.497  -3.734  -0.789  0.00  0.00    +0.000 HD
ENDBRANCH  28  29
ENDBRANCH  26  28
ENDBRANCH  25  26
ENDBRANCH   1  25
TORSDOF 14
