REMARK  Name = 
REMARK  16 active torsions:
REMARK  status: ('A' for Active; 'I' for Inactive)
REMARK    1  A    between atoms: C_1  and  C_2
REMARK    2  A    between atoms: N_4  and  C_5
REMARK    3  A    between atoms: C_5  and  C_6
REMARK    4  A    between atoms: C_5  and  C_14
REMARK    5  A    between atoms: C_6  and  C_7
REMARK    6  A    between atoms: C_10  and  O_11
REMARK    7  A    between atoms: C_20  and  C_21
REMARK    8  A    between atoms: C_25  and  O_26
REMARK    9  A    between atoms: C_28  and  C_29
REMARK   10  A    between atoms: N_31  and  C_32
REMARK   11  A    between atoms: C_32  and  C_33
REMARK   12  A    between atoms: N_35  and  C_36
REMARK   13  A    between atoms: C_36  and  C_37
REMARK   14  A    between atoms: C_36  and  C_38
REMARK   15  A    between atoms: N_40  and  C_41
REMARK   16  A    between atoms: C_41  and  C_42
REMARK                            x       y       z     vdW  Elec       q    Type
REMARK                         _______ _______ _______ _____ _____    ______ ____
ROOT
ATOM      1  C   UNL     1      -0.785  -0.197   0.265  0.00  0.00    +0.000 C 
ATOM      2  O   UNL     1      -0.559   0.463   1.326  0.00  0.00    +0.000 OA
ATOM      3  N   UNL     1       0.321  -0.328  -0.639  0.00  0.00    +0.000 N 
ATOM      4  C   UNL     1       0.590  -1.387  -1.437  0.00  0.00    +0.000 C 
ATOM      5  C   UNL     1       1.293  -0.784  -2.806  0.00  0.00    +0.000 C 
ATOM      6  C   UNL     1       0.301   0.546  -2.782  0.00  0.00    +0.000 C 
ATOM      7  C   UNL     1       0.783   1.045  -1.275  0.00  0.00    +0.000 C 
ENDROOT
BRANCH   1  14
ATOM      8  C   UNL     1      -4.378   0.570   0.140  0.00  0.00    +0.000 C 
ATOM      9  O   UNL     1      -4.654   1.702  -0.258  0.00  0.00    +0.000 OA
ATOM     10  N   UNL     1      -3.085   0.157   0.600  0.00  0.00    +0.000 N 
ATOM     11  C   UNL     1      -2.744  -1.126   1.120  0.00  0.00    +0.000 C 
ATOM     12  C   UNL     1      -2.400  -1.917  -0.102  0.00  0.00    +0.000 C 
ATOM     13  C   UNL     1      -2.397  -1.009  -1.278  0.00  0.00    +0.000 C 
ATOM     14  C   UNL     1      -2.037   0.438  -0.559  0.00  0.00    +0.000 C 
BRANCH   8  15
ATOM     15  C   UNL     1      -5.345  -0.643  -0.337  0.00  0.00    +0.000 C 
BRANCH  15  19
ATOM     16  C   UNL     1      -6.978  -0.141  -3.543  0.00  0.00    +0.000 C 
ATOM     17  C   UNL     1      -6.829  -0.187  -2.339  0.00  0.00    +0.000 C 
ATOM     18  O   UNL     1      -7.624   0.498  -1.629  0.00  0.00    +0.000 OA
ATOM     19  N   UNL     1      -5.503  -0.063  -1.807  0.00  0.00    +0.000 N 
ATOM     20  H   UNL     1      -4.759   0.344  -2.307  0.00  0.00    +0.000 HD
ENDBRANCH  15  19
BRANCH  15  21
ATOM     21  C   UNL     1      -6.684   0.143   0.252  0.00  0.00    +0.000 C 
BRANCH  21  22
ATOM     22  C   UNL     1      -6.396  -0.021   1.706  0.00  0.00    +0.000 A 
ATOM     23  C   UNL     1      -5.975   1.040   2.484  0.00  0.00    +0.000 A 
ATOM     24  C   UNL     1      -6.258   1.029   3.834  0.00  0.00    +0.000 A 
ATOM     25  C   UNL     1      -6.765  -0.107   4.433  0.00  0.00    +0.000 A 
ATOM     26  C   UNL     1      -6.649  -1.276   3.693  0.00  0.00    +0.000 A 
ATOM     27  C   UNL     1      -6.532  -1.249   2.309  0.00  0.00    +0.000 A 
BRANCH  25  28
ATOM     28  O   UNL     1      -7.597  -0.065   5.554  0.00  0.00    +0.000 OA
ATOM     29  H   UNL     1      -7.674   0.725   6.052  0.00  0.00    +0.000 HD
ENDBRANCH  25  28
ENDBRANCH  21  22
ENDBRANCH  15  21
ENDBRANCH   8  15
ENDBRANCH   1  14
BRANCH   7  30
ATOM     30  C   UNL     1       2.336   0.610  -1.484  0.00  0.00    +0.000 C 
ATOM     31  O   UNL     1       2.790  -0.233  -0.736  0.00  0.00    +0.000 OA
ATOM     32  N   UNL     1       3.163   1.543  -2.131  0.00  0.00    +0.000 N 
ATOM     33  H   UNL     1       2.946   2.503  -2.159  0.00  0.00    +0.000 HD
BRANCH  32  34
ATOM     34  C   UNL     1       4.365   0.999  -2.759  0.00  0.00    +0.000 C 
BRANCH  34  35
ATOM     35  C   UNL     1       5.017  -0.031  -1.935  0.00  0.00    +0.000 C 
ATOM     36  O   UNL     1       5.001  -1.216  -2.388  0.00  0.00    +0.000 OA
ATOM     37  N   UNL     1       5.729   0.269  -0.756  0.00  0.00    +0.000 N 
ATOM     38  H   UNL     1       5.965   1.189  -0.500  0.00  0.00    +0.000 HD
BRANCH  37  39
ATOM     39  C   UNL     1       6.121  -0.993   0.127  0.00  0.00    +0.000 C 
ATOM     40  C   UNL     1       5.763  -0.186   1.531  0.00  0.00    +0.000 C 
BRANCH  39  41
ATOM     41  C   UNL     1       7.688  -0.581   0.196  0.00  0.00    +0.000 C 
ATOM     42  O   UNL     1       8.290  -1.535   0.773  0.00  0.00    +0.000 OA
ATOM     43  N   UNL     1       8.009   0.756   0.425  0.00  0.00    +0.000 N 
ATOM     44  H   UNL     1       7.327   1.452   0.568  0.00  0.00    +0.000 HD
BRANCH  43  45
ATOM     45  C   UNL     1       9.446   1.040   0.434  0.00  0.00    +0.000 C 
BRANCH  45  46
ATOM     46  C   UNL     1       9.982   0.182   1.538  0.00  0.00    +0.000 C 
ATOM     47  N   UNL     1      11.105  -0.637   1.250  0.00  0.00    +0.000 N 
ATOM     48  O   UNL     1       9.755   0.646   2.696  0.00  0.00    +0.000 OA
ATOM     49  H   UNL     1      11.245  -0.977   0.337  0.00  0.00    +0.000 HD
ATOM     50  H   UNL     1      11.744  -0.865   1.963  0.00  0.00    +0.000 HD
ENDBRANCH  45  46
ENDBRANCH  43  45
ENDBRANCH  39  41
ENDBRANCH  37  39
ENDBRANCH  34  35
ENDBRANCH  32  34
ENDBRANCH   7  30
BRANCH   5  51
ATOM     51  O   UNL     1       0.328  -1.562  -3.706  0.00  0.00    +0.000 OA
ATOM     52  H   UNL     1      -0.577  -1.463  -3.371  0.00  0.00    +0.000 HD
ENDBRANCH   5  51
TORSDOF 14
