REMARK  Name = 4922
REMARK  13 active torsions:
REMARK  status: ('A' for Active; 'I' for Inactive)
REMARK    1  A    between atoms: O_3  and  C_18
REMARK    2  A    between atoms: N_5  and  C_10
REMARK    3  A    between atoms: N_5  and  C_11
REMARK    4  A    between atoms: N_6  and  C_7
REMARK    5  A    between atoms: C_7  and  C_8
REMARK    6  A    between atoms: C_7  and  C_9
REMARK    7  A    between atoms: C_9  and  C_14
REMARK    8  A    between atoms: C_10  and  C_12
REMARK    9  A    between atoms: C_11  and  C_13
REMARK   10  A    between atoms: C_12  and  C_15
REMARK   11  A    between atoms: C_13  and  C_16
REMARK   12  A    between atoms: C_14  and  C_18
REMARK   13  A    between atoms: C_17  and  C_19
REMARK                            x       y       z     vdW  Elec       q    Type
REMARK                         _______ _______ _______ _____ _____    ______ ____
ROOT
ATOM      1  C   UNL     1      -0.535   0.448   0.587  0.00  0.00    +0.000 C 
ENDROOT
BRANCH   1   3
ATOM      2  O   UNL     1       1.037  -0.260  -1.644  0.00  0.00    +0.000 OA
ATOM      3  N   UNL     1       0.843   0.019   0.628  0.00  0.00    +0.000 N 
ATOM      4  C   UNL     1       1.551  -0.314  -0.525  0.00  0.00    +0.000 C 
ATOM      5  H   UNL     1       1.249  -0.146   1.543  0.00  0.00    +0.000 HD
BRANCH   4   6
ATOM      6  C   UNL     1       2.955  -0.701  -0.324  0.00  0.00    +0.000 A 
ATOM      7  C   UNL     1       3.564  -1.553  -1.233  0.00  0.00    +0.000 A 
ATOM      8  C   UNL     1       3.647  -0.208   0.772  0.00  0.00    +0.000 A 
ATOM      9  C   UNL     1       4.896  -1.920  -1.042  0.00  0.00    +0.000 A 
ATOM     10  C   UNL     1       4.979  -0.575   0.963  0.00  0.00    +0.000 A 
ATOM     11  C   UNL     1       5.604  -1.431   0.056  0.00  0.00    +0.000 A 
ENDBRANCH   4   6
ENDBRANCH   1   3
BRANCH   1  14
ATOM     12  O   UNL     1      -1.036  -1.776   1.332  0.00  0.00    +0.000 OA
ATOM     13  N   UNL     1      -2.605  -0.796  -0.062  0.00  0.00    +0.000 N 
ATOM     14  C   UNL     1      -1.398  -0.814   0.646  0.00  0.00    +0.000 C 
BRANCH  13  15
ATOM     15  C   UNL     1      -3.454  -1.981  -0.055  0.00  0.00    +0.000 C 
BRANCH  15  16
ATOM     16  C   UNL     1      -4.457  -1.969   1.093  0.00  0.00    +0.000 C 
ATOM     17  C   UNL     1      -5.333  -3.213   1.121  0.00  0.00    +0.000 C 
ENDBRANCH  15  16
ENDBRANCH  13  15
BRANCH  13  18
ATOM     18  C   UNL     1      -3.092   0.306  -0.890  0.00  0.00    +0.000 C 
BRANCH  18  19
ATOM     19  C   UNL     1      -2.636   0.189  -2.339  0.00  0.00    +0.000 C 
ATOM     20  C   UNL     1      -3.122   1.343  -3.204  0.00  0.00    +0.000 C 
ENDBRANCH  18  19
ENDBRANCH  13  18
ENDBRANCH   1  14
BRANCH   1  21
ATOM     21  C   UNL     1      -0.866   1.379   1.758  0.00  0.00    +0.000 C 
BRANCH  21  22
ATOM     22  C   UNL     1       0.006   2.636   1.762  0.00  0.00    +0.000 C 
BRANCH  22  24
ATOM     23  O   UNL     1      -1.250   3.542  -0.117  0.00  0.00    +0.000 OA
ATOM     24  C   UNL     1      -0.210   3.477   0.524  0.00  0.00    +0.000 C 
BRANCH  24  25
ATOM     25  O   UNL     1       0.909   4.174   0.196  0.00  0.00    +0.000 OA
ATOM     26  H   UNL     1       0.775   4.722  -0.607  0.00  0.00    +0.000 HD
ENDBRANCH  24  25
ENDBRANCH  22  24
ENDBRANCH  21  22
ENDBRANCH   1  21
TORSDOF 11
