REMARK  Name = 5463984
REMARK  10 active torsions:
REMARK  status: ('A' for Active; 'I' for Inactive)
REMARK    1  A    between atoms: O_2  and  C_20
REMARK    2  A    between atoms: O_4  and  C_24
REMARK    3  A    between atoms: N_6  and  C_8
REMARK    4  A    between atoms: N_6  and  CA_11
REMARK    5  A    between atoms: N_7  and  C_17
REMARK    6  A    between atoms: CA_11  and  C_15
REMARK    7  A    between atoms: CA_11  and  C_20
REMARK    8  A    between atoms: C_15  and  C_16
REMARK    9  A    between atoms: C_16  and  C_21
REMARK   10  A    between atoms: C_17  and  C_24
REMARK                            x       y       z     vdW  Elec       q    Type
REMARK                         _______ _______ _______ _____ _____    ______ ____
ROOT
ATOM      1  O   UNL     1       1.853  -2.473  -1.433  0.00  0.00    +0.000 OA
ATOM      2  N   UNL     1       2.644  -0.487  -0.511  0.00  0.00    +0.000 N 
ATOM      3  C   UNL     1       0.545  -1.507   0.343  0.00  0.00    +0.000 C 
ATOM      4  C   UNL     1       0.900  -1.981   1.748  0.00  0.00    +0.000 C 
ATOM      5  C   UNL     1       2.221  -1.422   2.263  0.00  0.00    +0.000 C 
ATOM      6  C   UNL     1       1.743  -1.566  -0.603  0.00  0.00    +0.000 C 
ATOM      7  C   UNL     1       2.427   0.030   1.915  0.00  0.00    +0.000 A 
ATOM      8  C   UNL     1       2.684   0.441   0.587  0.00  0.00    +0.000 A 
ATOM      9  C   UNL     1       2.452   0.976   2.954  0.00  0.00    +0.000 A 
ATOM     10  C   UNL     1       3.021   1.787   0.355  0.00  0.00    +0.000 A 
ATOM     11  C   UNL     1       2.754   2.311   2.696  0.00  0.00    +0.000 A 
ATOM     12  C   UNL     1       3.046   2.714   1.399  0.00  0.00    +0.000 A 
ENDROOT
BRANCH   3  13
ATOM     13  N   UNL     1      -0.530  -2.336  -0.206  0.00  0.00    +0.000 NA
ATOM     14  H   UNL     1      -0.202  -3.300  -0.291  0.00  0.00    +0.000 HD
BRANCH  13  15
ATOM     15  CA  UNL     1      -1.698  -2.302   0.658  0.00  0.00    +0.000 C 
BRANCH  15  17
ATOM     16  OXT UNL     1      -2.628  -3.744  -1.069  0.00  0.00    +0.000 OA
ATOM     17  C   UNL     1      -2.752  -3.185   0.013  0.00  0.00    +0.000 C 
BRANCH  17  18
ATOM     18  O   UNL     1      -3.862  -3.317   0.784  0.00  0.00    +0.000 OA
ATOM     19  H   UNL     1      -4.532  -3.896   0.363  0.00  0.00    +0.000 HD
ENDBRANCH  17  18
ENDBRANCH  15  17
BRANCH  15  20
ATOM     20  C   UNL     1      -2.191  -0.854   0.786  0.00  0.00    +0.000 C 
BRANCH  20  21
ATOM     21  C   UNL     1      -2.616  -0.207  -0.541  0.00  0.00    +0.000 C 
BRANCH  21  22
ATOM     22  C   UNL     1      -3.173   1.189  -0.407  0.00  0.00    +0.000 A 
ATOM     23  C   UNL     1      -4.534   1.363  -0.211  0.00  0.00    +0.000 A 
ATOM     24  C   UNL     1      -2.313   2.274  -0.481  0.00  0.00    +0.000 A 
ATOM     25  C   UNL     1      -5.049   2.653  -0.087  0.00  0.00    +0.000 A 
ATOM     26  C   UNL     1      -2.828   3.564  -0.356  0.00  0.00    +0.000 A 
ATOM     27  C   UNL     1      -4.196   3.754  -0.159  0.00  0.00    +0.000 A 
ENDBRANCH  21  22
ENDBRANCH  20  21
ENDBRANCH  15  20
ENDBRANCH  13  15
ENDBRANCH   3  13
BRANCH   2  28
ATOM     28  C   UNL     1       3.587  -0.275  -1.609  0.00  0.00    +0.000 C 
BRANCH  28  30
ATOM     29  O   UNL     1       3.666   0.914  -3.700  0.00  0.00    +0.000 OA
ATOM     30  C   UNL     1       3.038   0.619  -2.690  0.00  0.00    +0.000 C 
BRANCH  30  31
ATOM     31  O   UNL     1       1.786   1.067  -2.439  0.00  0.00    +0.000 OA
ATOM     32  H   UNL     1       1.452   1.648  -3.155  0.00  0.00    +0.000 HD
ENDBRANCH  30  31
ENDBRANCH  28  30
ENDBRANCH   2  28
TORSDOF 10
