REMARK  Name = 5464097
REMARK  11 active torsions:
REMARK  status: ('A' for Active; 'I' for Inactive)
REMARK    1  A    between atoms: O_2  and  C_17
REMARK    2  A    between atoms: O_4  and  C_22
REMARK    3  A    between atoms: N_7  and  CA_18
REMARK    4  A    between atoms: N_7  and  CA_20
REMARK    5  A    between atoms: CA_11  and  C_17
REMARK    6  A    between atoms: C_16  and  CA_18
REMARK    7  A    between atoms: CA_18  and  CB_19
REMARK    8  A    between atoms: CA_20  and  C_21
REMARK    9  A    between atoms: CA_20  and  C_22
REMARK   10  A    between atoms: C_21  and  C_23
REMARK   11  A    between atoms: C_23  and  C_24
REMARK                            x       y       z     vdW  Elec       q    Type
REMARK                         _______ _______ _______ _____ _____    ______ ____
ROOT
ATOM      1  CA  UNL     1       0.817  -1.492  -1.480  0.00  0.00    +0.000 C 
ATOM      2  CB  UNL     1       1.424  -2.172  -2.690  0.00  0.00    +0.000 C 
ENDROOT
BRANCH   1  13
ATOM      3  O   UNL     1       0.904   0.848  -1.865  0.00  0.00    +0.000 OA
ATOM      4  N   UNL     1       2.547  -0.048  -0.496  0.00  0.00    +0.000 N 
ATOM      5  C   UNL     1       4.463   0.774   0.586  0.00  0.00    +0.000 C 
ATOM      6  C   UNL     1       3.458   1.093  -0.524  0.00  0.00    +0.000 C 
ATOM      7  C   UNL     1       4.635  -0.731   0.437  0.00  0.00    +0.000 C 
ATOM      8  CA  UNL     1       3.187  -1.182   0.188  0.00  0.00    +0.000 C 
ATOM      9  C   UNL     1       5.684   1.666   0.462  0.00  0.00    +0.000 C 
ATOM     10  C   UNL     1       2.909   2.496  -0.289  0.00  0.00    +0.000 C 
ATOM     11  C   UNL     1       5.238   3.129   0.606  0.00  0.00    +0.000 C 
ATOM     12  C   UNL     1       4.071   3.503  -0.322  0.00  0.00    +0.000 C 
ATOM     13  C   UNL     1       1.419  -0.120  -1.303  0.00  0.00    +0.000 C 
BRANCH   8  15
ATOM     14  OXT UNL     1       1.890  -0.569   2.135  0.00  0.00    +0.000 OA
ATOM     15  C   UNL     1       2.474  -1.424   1.485  0.00  0.00    +0.000 C 
BRANCH  15  16
ATOM     16  O   UNL     1       2.566  -2.727   1.846  0.00  0.00    +0.000 OA
ATOM     17  H   UNL     1       2.104  -2.906   2.693  0.00  0.00    +0.000 HD
ENDBRANCH  15  16
ENDBRANCH   8  15
ENDBRANCH   1  13
BRANCH   1  18
ATOM     18  N   UNL     1      -0.614  -1.305  -1.647  0.00  0.00    +0.000 NA
ATOM     19  H   UNL     1      -1.037  -2.095  -2.133  0.00  0.00    +0.000 HD
BRANCH  18  20
ATOM     20  CA  UNL     1      -1.270  -1.089  -0.363  0.00  0.00    +0.000 C 
BRANCH  20  22
ATOM     21  OXT UNL     1      -1.685  -3.488  -0.349  0.00  0.00    +0.000 OA
ATOM     22  C   UNL     1      -1.462  -2.456   0.271  0.00  0.00    +0.000 C 
BRANCH  22  23
ATOM     23  O   UNL     1      -1.333  -2.425   1.622  0.00  0.00    +0.000 OA
ATOM     24  H   UNL     1      -1.448  -3.314   2.021  0.00  0.00    +0.000 HD
ENDBRANCH  22  23
ENDBRANCH  20  22
BRANCH  20  25
ATOM     25  C   UNL     1      -2.617  -0.392  -0.594  0.00  0.00    +0.000 C 
BRANCH  25  26
ATOM     26  C   UNL     1      -3.404  -0.085   0.690  0.00  0.00    +0.000 C 
BRANCH  26  27
ATOM     27  C   UNL     1      -4.693   0.669   0.470  0.00  0.00    +0.000 A 
ATOM     28  C   UNL     1      -4.695   2.064   0.481  0.00  0.00    +0.000 A 
ATOM     29  C   UNL     1      -5.881  -0.029   0.255  0.00  0.00    +0.000 A 
ATOM     30  C   UNL     1      -5.886   2.761   0.277  0.00  0.00    +0.000 A 
ATOM     31  C   UNL     1      -7.072   0.668   0.051  0.00  0.00    +0.000 A 
ATOM     32  C   UNL     1      -7.074   2.063   0.062  0.00  0.00    +0.000 A 
ENDBRANCH  26  27
ENDBRANCH  25  26
ENDBRANCH  20  25
ENDBRANCH  18  20
ENDBRANCH   1  18
TORSDOF 10
