MODEL 1
REMARK VINA RESULT:     4.645      0.000      0.000
REMARK INTER + INTRA:           2.138
REMARK INTER:                   3.154
REMARK INTRA:                  -1.016
REMARK CONF_INDEPENDENT:        1.492
REMARK UNBOUND:                 1.016
REMARK  Name = 2662
REMARK  6 active torsions:
REMARK  status: ('A' for Active; 'I' for Inactive)
REMARK    1  A    between atoms: S_1  and  N_9
REMARK    2  A    between atoms: S_1  and  C_17
REMARK    3  A    between atoms: N_7  and  C_11
REMARK    4  A    between atoms: C_10  and  C_12
REMARK    5  A    between atoms: C_14  and  C_25
REMARK    6  A    between atoms: C_22  and  C_26
REMARK                            x       y       z     vdW  Elec       q    Type
REMARK                         _______ _______ _______ _____ _____    ______ ____
ROOT
ATOM      1  N   UNL     1       0.507   5.129   0.637  0.00  0.00    +0.000 N 
ATOM      2  N   UNL     1      -0.399   5.494   1.560  0.00  0.00    +0.000 NA
ATOM      3  C   UNL     1      -0.019   4.423  -0.407  0.00  0.00    +0.000 A 
ATOM      4  C   UNL     1      -1.365   4.319  -0.143  0.00  0.00    +0.000 A 
ATOM      5  C   UNL     1      -1.540   4.996   1.078  0.00  0.00    +0.000 A 
ENDROOT
BRANCH   3   6
ATOM      6  C   UNL     1       0.743   3.919  -1.523  0.00  0.00    +0.000 A 
ATOM      7  C   UNL     1       1.991   3.334  -1.308  0.00  0.00    +0.000 A 
ATOM      8  C   UNL     1       0.232   4.017  -2.817  0.00  0.00    +0.000 A 
ATOM      9  C   UNL     1       2.217   2.945  -3.681  0.00  0.00    +0.000 A 
ATOM     10  C   UNL     1       2.728   2.847  -2.388  0.00  0.00    +0.000 A 
ATOM     11  C   UNL     1       0.969   3.530  -3.897  0.00  0.00    +0.000 A 
ATOM     12  C   UNL     1       3.005   2.425  -4.836  0.00  0.00    +0.000 C 
ENDBRANCH   3   6
BRANCH   1  13
ATOM     13  C   UNL     1       1.846   5.485   0.811  0.00  0.00    +0.000 A 
ATOM     14  C   UNL     1       2.411   5.421   2.077  0.00  0.00    +0.000 A 
ATOM     15  C   UNL     1       2.592   5.898  -0.284  0.00  0.00    +0.000 A 
ATOM     16  C   UNL     1       4.508   6.192   1.158  0.00  0.00    +0.000 A 
ATOM     17  C   UNL     1       3.749   5.776   2.252  0.00  0.00    +0.000 A 
ATOM     18  C   UNL     1       3.930   6.253  -0.109  0.00  0.00    +0.000 A 
BRANCH  16  19
ATOM     19  S   UNL     1       6.183   6.637   1.377  0.00  0.00    +0.000 S 
ATOM     20  O   UNL     1       6.644   7.300   0.165  0.00  0.00    +0.000 OA
ATOM     21  O   UNL     1       6.320   7.304   2.664  0.00  0.00    +0.000 OA
BRANCH  19  22
ATOM     22  N   UNL     1       6.917   5.097   1.476  0.00  0.00    +0.000 NA
ATOM     23  H   UNL     1       7.384   4.847   2.356  0.00  0.00    +0.000 HD
ATOM     24  H   UNL     1       6.438   4.311   1.021  0.00  0.00    +0.000 HD
ENDBRANCH  19  22
ENDBRANCH  16  19
ENDBRANCH   1  13
BRANCH   5  28
ATOM     25  F   UNL     1      -3.754   4.278   1.498  0.00  0.00    +0.000 F 
ATOM     26  F   UNL     1      -2.639   5.099   3.174  0.00  0.00    +0.000 F 
ATOM     27  F   UNL     1      -3.343   6.417   1.587  0.00  0.00    +0.000 F 
ATOM     28  C   UNL     1      -2.795   5.191   1.823  0.00  0.00    +0.000 C 
ENDBRANCH   5  28
TORSDOF 5
ENDMDL
MODEL 2
REMARK VINA RESULT:     5.158      0.120      1.168
REMARK INTER + INTRA:           2.466
REMARK INTER:                   3.666
REMARK INTRA:                  -1.200
REMARK CONF_INDEPENDENT:        1.492
REMARK UNBOUND:                 1.200
REMARK  Name = 2662
REMARK  6 active torsions:
REMARK  status: ('A' for Active; 'I' for Inactive)
REMARK    1  A    between atoms: S_1  and  N_9
REMARK    2  A    between atoms: S_1  and  C_17
REMARK    3  A    between atoms: N_7  and  C_11
REMARK    4  A    between atoms: C_10  and  C_12
REMARK    5  A    between atoms: C_14  and  C_25
REMARK    6  A    between atoms: C_22  and  C_26
REMARK                            x       y       z     vdW  Elec       q    Type
REMARK                         _______ _______ _______ _____ _____    ______ ____
ROOT
ATOM      1  N   UNL     1       0.511   5.164   0.651  0.00  0.00    +0.000 N 
ATOM      2  N   UNL     1      -0.394   5.547   1.568  0.00  0.00    +0.000 NA
ATOM      3  C   UNL     1      -0.018   4.449  -0.385  0.00  0.00    +0.000 A 
ATOM      4  C   UNL     1      -1.365   4.360  -0.124  0.00  0.00    +0.000 A 
ATOM      5  C   UNL     1      -1.538   5.053   1.089  0.00  0.00    +0.000 A 
ENDROOT
BRANCH   3   6
ATOM      6  C   UNL     1       0.743   3.926  -1.492  0.00  0.00    +0.000 A 
ATOM      7  C   UNL     1       1.953   3.272  -1.260  0.00  0.00    +0.000 A 
ATOM      8  C   UNL     1       0.269   4.073  -2.796  0.00  0.00    +0.000 A 
ATOM      9  C   UNL     1       2.215   2.914  -3.635  0.00  0.00    +0.000 A 
ATOM     10  C   UNL     1       2.689   2.765  -2.332  0.00  0.00    +0.000 A 
ATOM     11  C   UNL     1       1.005   3.568  -3.868  0.00  0.00    +0.000 A 
ATOM     12  C   UNL     1       3.001   2.374  -4.782  0.00  0.00    +0.000 C 
ENDBRANCH   3   6
BRANCH   1  13
ATOM     13  C   UNL     1       1.853   5.511   0.825  0.00  0.00    +0.000 A 
ATOM     14  C   UNL     1       2.592   5.947  -0.267  0.00  0.00    +0.000 A 
ATOM     15  C   UNL     1       2.427   5.414   2.084  0.00  0.00    +0.000 A 
ATOM     16  C   UNL     1       4.520   6.200   1.167  0.00  0.00    +0.000 A 
ATOM     17  C   UNL     1       3.933   6.294  -0.094  0.00  0.00    +0.000 A 
ATOM     18  C   UNL     1       3.768   5.760   2.256  0.00  0.00    +0.000 A 
BRANCH  16  19
ATOM     19  S   UNL     1       6.198   6.634   1.383  0.00  0.00    +0.000 S 
ATOM     20  O   UNL     1       6.660   7.299   0.172  0.00  0.00    +0.000 OA
ATOM     21  O   UNL     1       6.342   7.294   2.672  0.00  0.00    +0.000 OA
BRANCH  19  22
ATOM     22  N   UNL     1       6.924   5.088   1.474  0.00  0.00    +0.000 NA
ATOM     23  H   UNL     1       7.763   4.990   2.058  0.00  0.00    +0.000 HD
ATOM     24  H   UNL     1       6.302   4.272   1.497  0.00  0.00    +0.000 HD
ENDBRANCH  19  22
ENDBRANCH  16  19
ENDBRANCH   1  13
BRANCH   5  28
ATOM     25  F   UNL     1      -3.500   6.343   1.376  0.00  0.00    +0.000 F 
ATOM     26  F   UNL     1      -3.648   4.207   1.756  0.00  0.00    +0.000 F 
ATOM     27  F   UNL     1      -2.574   5.489   3.155  0.00  0.00    +0.000 F 
ATOM     28  C   UNL     1      -2.793   5.267   1.828  0.00  0.00    +0.000 C 
ENDBRANCH   5  28
TORSDOF 5
ENDMDL
MODEL 3
REMARK VINA RESULT:     5.639      4.912      7.087
REMARK INTER + INTRA:           2.913
REMARK INTER:                   4.148
REMARK INTRA:                  -1.235
REMARK CONF_INDEPENDENT:        1.492
REMARK UNBOUND:                 1.235
REMARK  Name = 2662
REMARK  6 active torsions:
REMARK  status: ('A' for Active; 'I' for Inactive)
REMARK    1  A    between atoms: S_1  and  N_9
REMARK    2  A    between atoms: S_1  and  C_17
REMARK    3  A    between atoms: N_7  and  C_11
REMARK    4  A    between atoms: C_10  and  C_12
REMARK    5  A    between atoms: C_14  and  C_25
REMARK    6  A    between atoms: C_22  and  C_26
REMARK                            x       y       z     vdW  Elec       q    Type
REMARK                         _______ _______ _______ _____ _____    ______ ____
ROOT
ATOM      1  N   UNL     1       1.637   3.944  -1.752  0.00  0.00    +0.000 N 
ATOM      2  N   UNL     1       1.421   3.245  -2.880  0.00  0.00    +0.000 NA
ATOM      3  C   UNL     1       2.939   4.313  -1.570  0.00  0.00    +0.000 A 
ATOM      4  C   UNL     1       3.621   3.818  -2.657  0.00  0.00    +0.000 A 
ATOM      5  C   UNL     1       2.636   3.172  -3.428  0.00  0.00    +0.000 A 
ENDROOT
BRANCH   3   6
ATOM      6  C   UNL     1       3.427   5.066  -0.441  0.00  0.00    +0.000 A 
ATOM      7  C   UNL     1       2.928   6.344  -0.188  0.00  0.00    +0.000 A 
ATOM      8  C   UNL     1       4.399   4.518   0.397  0.00  0.00    +0.000 A 
ATOM      9  C   UNL     1       4.371   6.524   1.741  0.00  0.00    +0.000 A 
ATOM     10  C   UNL     1       3.400   7.073   0.905  0.00  0.00    +0.000 A 
ATOM     11  C   UNL     1       4.871   5.247   1.488  0.00  0.00    +0.000 A 
ATOM     12  C   UNL     1       4.877   7.303   2.908  0.00  0.00    +0.000 C 
ENDBRANCH   3   6
BRANCH   1  13
ATOM     13  C   UNL     1       0.566   4.222  -0.901  0.00  0.00    +0.000 A 
ATOM     14  C   UNL     1      -0.703   4.400  -1.435  0.00  0.00    +0.000 A 
ATOM     15  C   UNL     1       0.785   4.316   0.466  0.00  0.00    +0.000 A 
ATOM     16  C   UNL     1      -1.565   4.774   0.790  0.00  0.00    +0.000 A 
ATOM     17  C   UNL     1      -1.774   4.678  -0.585  0.00  0.00    +0.000 A 
ATOM     18  C   UNL     1      -0.286   4.594   1.316  0.00  0.00    +0.000 A 
BRANCH  16  19
ATOM     19  S   UNL     1      -2.905   5.122   1.855  0.00  0.00    +0.000 S 
ATOM     20  O   UNL     1      -2.380   5.363   3.192  0.00  0.00    +0.000 OA
ATOM     21  O   UNL     1      -3.753   6.120   1.219  0.00  0.00    +0.000 OA
BRANCH  19  22
ATOM     22  N   UNL     1      -3.724   3.621   1.846  0.00  0.00    +0.000 NA
ATOM     23  H   UNL     1      -4.503   3.500   2.505  0.00  0.00    +0.000 HD
ATOM     24  H   UNL     1      -3.871   3.165   0.938  0.00  0.00    +0.000 HD
ENDBRANCH  19  22
ENDBRANCH  16  19
ENDBRANCH   1  13
BRANCH   5  28
ATOM     25  F   UNL     1       2.280   3.138  -5.767  0.00  0.00    +0.000 F 
ATOM     26  F   UNL     1       4.130   2.265  -5.028  0.00  0.00    +0.000 F 
ATOM     27  F   UNL     1       2.236   1.236  -4.701  0.00  0.00    +0.000 F 
ATOM     28  C   UNL     1       2.820   2.468  -4.708  0.00  0.00    +0.000 C 
ENDBRANCH   5  28
TORSDOF 5
ENDMDL
MODEL 4
REMARK VINA RESULT:     7.188      3.335      5.202
REMARK INTER + INTRA:           4.260
REMARK INTER:                   5.697
REMARK INTRA:                  -1.436
REMARK CONF_INDEPENDENT:        1.492
REMARK UNBOUND:                 1.436
REMARK  Name = 2662
REMARK  6 active torsions:
REMARK  status: ('A' for Active; 'I' for Inactive)
REMARK    1  A    between atoms: S_1  and  N_9
REMARK    2  A    between atoms: S_1  and  C_17
REMARK    3  A    between atoms: N_7  and  C_11
REMARK    4  A    between atoms: C_10  and  C_12
REMARK    5  A    between atoms: C_14  and  C_25
REMARK    6  A    between atoms: C_22  and  C_26
REMARK                            x       y       z     vdW  Elec       q    Type
REMARK                         _______ _______ _______ _____ _____    ______ ____
ROOT
ATOM      1  N   UNL     1      -0.852   4.753   0.134  0.00  0.00    +0.000 N 
ATOM      2  N   UNL     1      -2.188   4.664   0.014  0.00  0.00    +0.000 NA
ATOM      3  C   UNL     1      -0.440   5.427   1.247  0.00  0.00    +0.000 A 
ATOM      4  C   UNL     1      -1.590   5.804   1.900  0.00  0.00    +0.000 A 
ATOM      5  C   UNL     1      -2.633   5.307   1.096  0.00  0.00    +0.000 A 
ENDROOT
BRANCH   3   6
ATOM      6  C   UNL     1       0.939   5.658   1.602  0.00  0.00    +0.000 A 
ATOM      7  C   UNL     1       1.726   6.506   0.823  0.00  0.00    +0.000 A 
ATOM      8  C   UNL     1       1.485   5.034   2.724  0.00  0.00    +0.000 A 
ATOM      9  C   UNL     1       3.605   6.106   2.288  0.00  0.00    +0.000 A 
ATOM     10  C   UNL     1       3.060   6.730   1.166  0.00  0.00    +0.000 A 
ATOM     11  C   UNL     1       2.819   5.258   3.067  0.00  0.00    +0.000 A 
ATOM     12  C   UNL     1       5.032   6.344   2.655  0.00  0.00    +0.000 C 
ENDBRANCH   3   6
BRANCH   1  13
ATOM     13  C   UNL     1      -0.035   4.178  -0.842  0.00  0.00    +0.000 A 
ATOM     14  C   UNL     1       1.140   3.544  -0.463  0.00  0.00    +0.000 A 
ATOM     15  C   UNL     1      -0.409   4.252  -2.177  0.00  0.00    +0.000 A 
ATOM     16  C   UNL     1       1.590   3.037  -2.782  0.00  0.00    +0.000 A 
ATOM     17  C   UNL     1       1.957   2.970  -1.438  0.00  0.00    +0.000 A 
ATOM     18  C   UNL     1       0.408   3.678  -3.152  0.00  0.00    +0.000 A 
BRANCH  16  19
ATOM     19  S   UNL     1       2.612   2.318  -4.002  0.00  0.00    +0.000 S 
ATOM     20  O   UNL     1       2.254   0.913  -4.132  0.00  0.00    +0.000 OA
ATOM     21  O   UNL     1       2.605   3.179  -5.176  0.00  0.00    +0.000 OA
BRANCH  19  22
ATOM     22  N   UNL     1       4.143   2.429  -3.249  0.00  0.00    +0.000 NA
ATOM     23  H   UNL     1       4.492   3.366  -3.015  0.00  0.00    +0.000 HD
ATOM     24  H   UNL     1       4.387   1.709  -2.558  0.00  0.00    +0.000 HD
ENDBRANCH  19  22
ENDBRANCH  16  19
ENDBRANCH   1  13
BRANCH   5  28
ATOM     25  F   UNL     1      -4.469   6.702   1.625  0.00  0.00    +0.000 F 
ATOM     26  F   UNL     1      -4.834   5.051   0.258  0.00  0.00    +0.000 F 
ATOM     27  F   UNL     1      -4.495   4.655   2.375  0.00  0.00    +0.000 F 
ATOM     28  C   UNL     1      -4.081   5.428   1.331  0.00  0.00    +0.000 C 
ENDBRANCH   5  28
TORSDOF 5
ENDMDL
