MODEL 1
REMARK VINA RESULT:    52.251      0.000      0.000
REMARK INTER + INTRA:          47.331
REMARK INTER:                  49.268
REMARK INTRA:                  -1.938
REMARK CONF_INDEPENDENT:        2.983
REMARK UNBOUND:                 1.938
REMARK  Name = 6437836
REMARK  15 active torsions:
REMARK  status: ('A' for Active; 'I' for Inactive)
REMARK    1  A    between atoms: O_1  and  C_22
REMARK    2  A    between atoms: C_3  and  C_4
REMARK    3  A    between atoms: C_3  and  C_7
REMARK    4  A    between atoms: C_4  and  C_10
REMARK    5  A    between atoms: C_5  and  C_6
REMARK    6  A    between atoms: C_5  and  C_8
REMARK    7  A    between atoms: C_6  and  C_9
REMARK    8  A    between atoms: C_7  and  C_11
REMARK    9  A    between atoms: C_9  and  C_13
REMARK   10  A    between atoms: C_12  and  C_15
REMARK   11  A    between atoms: C_12  and  C_16
REMARK   12  A    between atoms: C_14  and  C_17
REMARK   13  A    between atoms: C_18  and  C_19
REMARK   14  A    between atoms: C_19  and  C_20
REMARK   15  A    between atoms: C_21  and  C_22
REMARK                            x       y       z     vdW  Elec       q    Type
REMARK                         _______ _______ _______ _____ _____    ______ ____
ROOT
ATOM      1  C   UNL     1       6.349   5.229   3.897  0.00  0.00    +0.000 C 
ATOM      2  C   UNL     1       4.980   5.256   4.529  0.00  0.00    +0.000 C 
ATOM      3  C   UNL     1       6.867   4.057   3.474  0.00  0.00    +0.000 C 
ENDROOT
BRANCH   3   4
ATOM      4  C   UNL     1       6.247   2.750   3.551  0.00  0.00    +0.000 C 
ATOM      5  C   UNL     1       5.276   2.357   2.709  0.00  0.00    +0.000 C 
BRANCH   5   6
ATOM      6  C   UNL     1       4.611   1.049   2.682  0.00  0.00    +0.000 C 
ATOM      7  C   UNL     1       5.494  -0.172   2.642  0.00  0.00    +0.000 C 
ATOM      8  C   UNL     1       3.263   1.028   2.666  0.00  0.00    +0.000 C 
BRANCH   8  10
ATOM      9  O   UNL     1       1.787  -0.664   3.565  0.00  0.00    +0.000 OA
ATOM     10  C   UNL     1       2.415  -0.184   2.638  0.00  0.00    +0.000 C 
BRANCH  10  11
ATOM     11  O   UNL     1       2.424  -0.681   1.379  0.00  0.00    +0.000 OA
ATOM     12  H   UNL     1       1.564  -0.547   0.924  0.00  0.00    +0.000 HD
ENDBRANCH  10  11
ENDBRANCH   8  10
ENDBRANCH   5   6
ENDBRANCH   3   4
BRANCH   1  13
ATOM     13  C   UNL     1       7.051   6.571   3.831  0.00  0.00    +0.000 C 
BRANCH  13  14
ATOM     14  C   UNL     1       6.622   7.450   2.647  0.00  0.00    +0.000 C 
BRANCH  14  16
ATOM     15  C   UNL     1       5.815   5.873   0.798  0.00  0.00    +0.000 C 
ATOM     16  C   UNL     1       5.599   6.785   1.766  0.00  0.00    +0.000 C 
ATOM     17  C   UNL     1       7.170   5.342   0.420  0.00  0.00    +0.000 C 
BRANCH  15  18
ATOM     18  C   UNL     1       4.640   5.271   0.048  0.00  0.00    +0.000 C 
BRANCH  18  19
ATOM     19  C   UNL     1       3.988   4.058   0.724  0.00  0.00    +0.000 C 
BRANCH  19  20
ATOM     20  C   UNL     1       2.889   3.430  -0.089  0.00  0.00    +0.000 C 
ATOM     21  C   UNL     1       1.848   4.050  -0.676  0.00  0.00    +0.000 C 
ATOM     22  C   UNL     1       1.579   5.527  -0.622  0.00  0.00    +0.000 C 
ATOM     23  C   UNL     1       0.832   3.262  -1.459  0.00  0.00    +0.000 C 
ENDBRANCH  19  20
ENDBRANCH  18  19
ENDBRANCH  15  18
ENDBRANCH  14  16
ENDBRANCH  13  14
ENDBRANCH   1  13
TORSDOF 10
ENDMDL
