MODEL 1
REMARK VINA RESULT:    -7.708      0.000      0.000
REMARK INTER + INTRA:          -9.887
REMARK INTER:                  -9.498
REMARK INTRA:                  -0.389
REMARK CONF_INDEPENDENT:        1.790
REMARK UNBOUND:                 0.389
REMARK  Name = 641785
REMARK  7 active torsions:
REMARK  status: ('A' for Active; 'I' for Inactive)
REMARK    1  A    between atoms: O_1  and  C_6
REMARK    2  A    between atoms: O_1  and  C_20
REMARK    3  A    between atoms: O_2  and  C_7
REMARK    4  A    between atoms: O_3  and  C_11
REMARK    5  A    between atoms: C_5  and  C_8
REMARK    6  A    between atoms: C_8  and  C_12
REMARK    7  A    between atoms: C_13  and  C_14
REMARK                            x       y       z     vdW  Elec       q    Type
REMARK                         _______ _______ _______ _____ _____    ______ ____
ROOT
ATOM      1  C   UNL     1      -3.391   7.364   2.303  0.00  0.00    +0.000 A 
ATOM      2  C   UNL     1      -3.568   7.378   3.673  0.00  0.00    +0.000 A 
ATOM      3  C   UNL     1      -2.136   7.245   1.733  0.00  0.00    +0.000 A 
ATOM      4  C   UNL     1      -2.451   7.270   4.504  0.00  0.00    +0.000 A 
ATOM      5  C   UNL     1      -1.021   7.138   2.562  0.00  0.00    +0.000 A 
ATOM      6  C   UNL     1      -1.178   7.150   3.947  0.00  0.00    +0.000 A 
ENDROOT
BRANCH   2   7
ATOM      7  O   UNL     1      -4.803   7.494   4.238  0.00  0.00    +0.000 OA
ATOM      8  C   UNL     1      -5.196   6.473   5.152  0.00  0.00    +0.000 C 
ENDBRANCH   2   7
BRANCH   3   9
ATOM      9  O   UNL     1      -1.960   7.231   0.381  0.00  0.00    +0.000 OA
ATOM     10  H   UNL     1      -2.055   6.329   0.033  0.00  0.00    +0.000 HD
ENDBRANCH   3   9
BRANCH   6  11
ATOM     11  O   UNL     1      -0.089   7.044   4.758  0.00  0.00    +0.000 OA
ATOM     12  H   UNL     1      -0.369   6.688   5.619  0.00  0.00    +0.000 HD
ENDBRANCH   6  11
BRANCH   1  14
ATOM     13  O   UNL     1      -5.692   7.598   1.914  0.00  0.00    +0.000 OA
ATOM     14  C   UNL     1      -4.577   7.479   1.420  0.00  0.00    +0.000 C 
BRANCH  14  15
ATOM     15  C   UNL     1      -4.353   7.412  -0.051  0.00  0.00    +0.000 C 
ATOM     16  C   UNL     1      -4.622   6.274  -0.731  0.00  0.00    +0.000 C 
BRANCH  16  17
ATOM     17  C   UNL     1      -4.427   6.087  -2.160  0.00  0.00    +0.000 A 
ATOM     18  C   UNL     1      -3.585   6.945  -2.868  0.00  0.00    +0.000 A 
ATOM     19  C   UNL     1      -5.082   5.049  -2.822  0.00  0.00    +0.000 A 
ATOM     20  C   UNL     1      -3.399   6.765  -4.238  0.00  0.00    +0.000 A 
ATOM     21  C   UNL     1      -4.895   4.870  -4.194  0.00  0.00    +0.000 A 
ATOM     22  C   UNL     1      -4.054   5.728  -4.901  0.00  0.00    +0.000 A 
ENDBRANCH  16  17
ENDBRANCH  14  15
ENDBRANCH   1  14
TORSDOF 6
ENDMDL
MODEL 2
REMARK VINA RESULT:    -7.493      1.674      2.380
REMARK INTER + INTRA:          -9.976
REMARK INTER:                  -9.283
REMARK INTRA:                  -0.693
REMARK CONF_INDEPENDENT:        1.790
REMARK UNBOUND:                 0.693
REMARK  Name = 641785
REMARK  7 active torsions:
REMARK  status: ('A' for Active; 'I' for Inactive)
REMARK    1  A    between atoms: O_1  and  C_6
REMARK    2  A    between atoms: O_1  and  C_20
REMARK    3  A    between atoms: O_2  and  C_7
REMARK    4  A    between atoms: O_3  and  C_11
REMARK    5  A    between atoms: C_5  and  C_8
REMARK    6  A    between atoms: C_8  and  C_12
REMARK    7  A    between atoms: C_13  and  C_14
REMARK                            x       y       z     vdW  Elec       q    Type
REMARK                         _______ _______ _______ _____ _____    ______ ____
ROOT
ATOM      1  C   UNL     1      -1.168   7.029   3.227  0.00  0.00    +0.000 A 
ATOM      2  C   UNL     1      -1.110   6.657   4.557  0.00  0.00    +0.000 A 
ATOM      3  C   UNL     1      -0.022   7.225   2.477  0.00  0.00    +0.000 A 
ATOM      4  C   UNL     1       0.136   6.475   5.158  0.00  0.00    +0.000 A 
ATOM      5  C   UNL     1       1.223   7.044   3.078  0.00  0.00    +0.000 A 
ATOM      6  C   UNL     1       1.302   6.669   4.418  0.00  0.00    +0.000 A 
ENDROOT
BRANCH   2   7
ATOM      7  O   UNL     1      -2.237   6.462   5.299  0.00  0.00    +0.000 OA
ATOM      8  C   UNL     1      -2.565   5.117   5.637  0.00  0.00    +0.000 C 
ENDBRANCH   2   7
BRANCH   3   9
ATOM      9  O   UNL     1      -0.077   7.591   1.165  0.00  0.00    +0.000 OA
ATOM     10  H   UNL     1       0.336   6.915   0.603  0.00  0.00    +0.000 HD
ENDBRANCH   3   9
BRANCH   6  11
ATOM     11  O   UNL     1       2.518   6.492   5.005  0.00  0.00    +0.000 OA
ATOM     12  H   UNL     1       2.451   5.774   5.658  0.00  0.00    +0.000 HD
ENDBRANCH   6  11
BRANCH   1  14
ATOM     13  O   UNL     1      -3.457   7.537   3.274  0.00  0.00    +0.000 OA
ATOM     14  C   UNL     1      -2.492   7.222   2.588  0.00  0.00    +0.000 C 
BRANCH  14  15
ATOM     15  C   UNL     1      -2.591   6.989   1.120  0.00  0.00    +0.000 C 
ATOM     16  C   UNL     1      -3.798   6.972   0.512  0.00  0.00    +0.000 C 
BRANCH  16  17
ATOM     17  C   UNL     1      -4.019   6.739  -0.907  0.00  0.00    +0.000 A 
ATOM     18  C   UNL     1      -3.332   5.715  -1.560  0.00  0.00    +0.000 A 
ATOM     19  C   UNL     1      -4.918   7.537  -1.613  0.00  0.00    +0.000 A 
ATOM     20  C   UNL     1      -3.543   5.492  -2.920  0.00  0.00    +0.000 A 
ATOM     21  C   UNL     1      -5.129   7.313  -2.975  0.00  0.00    +0.000 A 
ATOM     22  C   UNL     1      -4.441   6.290  -3.627  0.00  0.00    +0.000 A 
ENDBRANCH  16  17
ENDBRANCH  14  15
ENDBRANCH   1  14
TORSDOF 6
ENDMDL
MODEL 3
REMARK VINA RESULT:    -7.168     13.384     15.171
REMARK INTER + INTRA:         -10.546
REMARK INTER:                  -8.957
REMARK INTRA:                  -1.589
REMARK CONF_INDEPENDENT:        1.790
REMARK UNBOUND:                 1.589
REMARK  Name = 641785
REMARK  7 active torsions:
REMARK  status: ('A' for Active; 'I' for Inactive)
REMARK    1  A    between atoms: O_1  and  C_6
REMARK    2  A    between atoms: O_1  and  C_20
REMARK    3  A    between atoms: O_2  and  C_7
REMARK    4  A    between atoms: O_3  and  C_11
REMARK    5  A    between atoms: C_5  and  C_8
REMARK    6  A    between atoms: C_8  and  C_12
REMARK    7  A    between atoms: C_13  and  C_14
REMARK                            x       y       z     vdW  Elec       q    Type
REMARK                         _______ _______ _______ _____ _____    ______ ____
ROOT
ATOM      1  C   UNL     1       6.269  -2.158  -1.865  0.00  0.00    +0.000 A 
ATOM      2  C   UNL     1       7.253  -3.129  -1.842  0.00  0.00    +0.000 A 
ATOM      3  C   UNL     1       5.783  -1.643  -3.053  0.00  0.00    +0.000 A 
ATOM      4  C   UNL     1       7.769  -3.601  -3.049  0.00  0.00    +0.000 A 
ATOM      5  C   UNL     1       6.299  -2.115  -4.259  0.00  0.00    +0.000 A 
ATOM      6  C   UNL     1       7.292  -3.094  -4.257  0.00  0.00    +0.000 A 
ENDROOT
BRANCH   2   7
ATOM      7  O   UNL     1       7.734  -3.638  -0.672  0.00  0.00    +0.000 OA
ATOM      8  C   UNL     1       7.588  -5.042  -0.469  0.00  0.00    +0.000 C 
ENDBRANCH   2   7
BRANCH   3   9
ATOM      9  O   UNL     1       4.812  -0.686  -3.078  0.00  0.00    +0.000 OA
ATOM     10  H   UNL     1       4.987  -0.004  -2.410  0.00  0.00    +0.000 HD
ENDBRANCH   3   9
BRANCH   6  11
ATOM     11  O   UNL     1       7.796  -3.555  -5.435  0.00  0.00    +0.000 OA
ATOM     12  H   UNL     1       7.209  -3.278  -6.160  0.00  0.00    +0.000 HD
ENDBRANCH   6  11
BRANCH   1  14
ATOM     13  O   UNL     1       5.384  -0.480  -0.484  0.00  0.00    +0.000 OA
ATOM     14  C   UNL     1       5.720  -1.656  -0.582  0.00  0.00    +0.000 C 
BRANCH  14  15
ATOM     15  C   UNL     1       5.630  -2.614   0.554  0.00  0.00    +0.000 C 
ATOM     16  C   UNL     1       4.659  -3.555   0.578  0.00  0.00    +0.000 C 
BRANCH  16  17
ATOM     17  C   UNL     1       4.463  -4.530   1.640  0.00  0.00    +0.000 A 
ATOM     18  C   UNL     1       4.186  -4.102   2.938  0.00  0.00    +0.000 A 
ATOM     19  C   UNL     1       4.551  -5.893   1.359  0.00  0.00    +0.000 A 
ATOM     20  C   UNL     1       3.999  -5.036   3.956  0.00  0.00    +0.000 A 
ATOM     21  C   UNL     1       4.363  -6.828   2.378  0.00  0.00    +0.000 A 
ATOM     22  C   UNL     1       4.087  -6.399   3.676  0.00  0.00    +0.000 A 
ENDBRANCH  16  17
ENDBRANCH  14  15
ENDBRANCH   1  14
TORSDOF 6
ENDMDL
MODEL 4
REMARK VINA RESULT:    -6.724     13.261     14.983
REMARK INTER + INTRA:         -10.161
REMARK INTER:                  -8.514
REMARK INTRA:                  -1.647
REMARK CONF_INDEPENDENT:        1.790
REMARK UNBOUND:                 1.647
REMARK  Name = 641785
REMARK  7 active torsions:
REMARK  status: ('A' for Active; 'I' for Inactive)
REMARK    1  A    between atoms: O_1  and  C_6
REMARK    2  A    between atoms: O_1  and  C_20
REMARK    3  A    between atoms: O_2  and  C_7
REMARK    4  A    between atoms: O_3  and  C_11
REMARK    5  A    between atoms: C_5  and  C_8
REMARK    6  A    between atoms: C_8  and  C_12
REMARK    7  A    between atoms: C_13  and  C_14
REMARK                            x       y       z     vdW  Elec       q    Type
REMARK                         _______ _______ _______ _____ _____    ______ ____
ROOT
ATOM      1  C   UNL     1       6.120  -3.207  -0.449  0.00  0.00    +0.000 A 
ATOM      2  C   UNL     1       5.911  -2.363   0.626  0.00  0.00    +0.000 A 
ATOM      3  C   UNL     1       5.847  -2.813  -1.746  0.00  0.00    +0.000 A 
ATOM      4  C   UNL     1       5.411  -1.081   0.396  0.00  0.00    +0.000 A 
ATOM      5  C   UNL     1       5.346  -1.532  -1.976  0.00  0.00    +0.000 A 
ATOM      6  C   UNL     1       5.129  -0.666  -0.906  0.00  0.00    +0.000 A 
ENDROOT
BRANCH   2   7
ATOM      7  O   UNL     1       6.180  -2.749   1.906  0.00  0.00    +0.000 OA
ATOM      8  C   UNL     1       5.422  -2.127   2.941  0.00  0.00    +0.000 C 
ENDBRANCH   2   7
BRANCH   3   9
ATOM      9  O   UNL     1       6.053  -3.644  -2.808  0.00  0.00    +0.000 OA
ATOM     10  H   UNL     1       6.979  -3.931  -2.843  0.00  0.00    +0.000 HD
ENDBRANCH   3   9
BRANCH   6  11
ATOM     11  O   UNL     1       4.641   0.586  -1.130  0.00  0.00    +0.000 OA
ATOM     12  H   UNL     1       5.387   1.203  -1.221  0.00  0.00    +0.000 HD
ENDBRANCH   6  11
BRANCH   1  14
ATOM     13  O   UNL     1       7.435  -5.068  -1.005  0.00  0.00    +0.000 OA
ATOM     14  C   UNL     1       6.651  -4.570  -0.205  0.00  0.00    +0.000 C 
BRANCH  14  15
ATOM     15  C   UNL     1       6.174  -5.291   1.008  0.00  0.00    +0.000 C 
ATOM     16  C   UNL     1       4.852  -5.358   1.286  0.00  0.00    +0.000 C 
BRANCH  16  17
ATOM     17  C   UNL     1       4.273  -6.017   2.446  0.00  0.00    +0.000 A 
ATOM     18  C   UNL     1       3.107  -6.771   2.310  0.00  0.00    +0.000 A 
ATOM     19  C   UNL     1       4.883  -5.896   3.694  0.00  0.00    +0.000 A 
ATOM     20  C   UNL     1       2.550  -7.402   3.422  0.00  0.00    +0.000 A 
ATOM     21  C   UNL     1       4.326  -6.528   4.807  0.00  0.00    +0.000 A 
ATOM     22  C   UNL     1       3.160  -7.281   4.670  0.00  0.00    +0.000 A 
ENDBRANCH  16  17
ENDBRANCH  14  15
ENDBRANCH   1  14
TORSDOF 6
ENDMDL
MODEL 5
REMARK VINA RESULT:    -6.574     11.998     14.181
REMARK INTER + INTRA:          -9.394
REMARK INTER:                  -8.363
REMARK INTRA:                  -1.031
REMARK CONF_INDEPENDENT:        1.790
REMARK UNBOUND:                 1.031
REMARK  Name = 641785
REMARK  7 active torsions:
REMARK  status: ('A' for Active; 'I' for Inactive)
REMARK    1  A    between atoms: O_1  and  C_6
REMARK    2  A    between atoms: O_1  and  C_20
REMARK    3  A    between atoms: O_2  and  C_7
REMARK    4  A    between atoms: O_3  and  C_11
REMARK    5  A    between atoms: C_5  and  C_8
REMARK    6  A    between atoms: C_8  and  C_12
REMARK    7  A    between atoms: C_13  and  C_14
REMARK                            x       y       z     vdW  Elec       q    Type
REMARK                         _______ _______ _______ _____ _____    ______ ____
ROOT
ATOM      1  C   UNL     1       5.486  -1.948  -0.288  0.00  0.00    +0.000 A 
ATOM      2  C   UNL     1       5.931  -3.240  -0.491  0.00  0.00    +0.000 A 
ATOM      3  C   UNL     1       5.235  -1.091  -1.345  0.00  0.00    +0.000 A 
ATOM      4  C   UNL     1       6.134  -3.692  -1.796  0.00  0.00    +0.000 A 
ATOM      5  C   UNL     1       5.437  -1.542  -2.648  0.00  0.00    +0.000 A 
ATOM      6  C   UNL     1       5.886  -2.843  -2.874  0.00  0.00    +0.000 A 
ENDROOT
BRANCH   2   7
ATOM      7  O   UNL     1       6.179  -4.087   0.548  0.00  0.00    +0.000 OA
ATOM      8  C   UNL     1       5.451  -5.312   0.573  0.00  0.00    +0.000 C 
ENDBRANCH   2   7
BRANCH   3   9
ATOM      9  O   UNL     1       4.794   0.184  -1.147  0.00  0.00    +0.000 OA
ATOM     10  H   UNL     1       5.543   0.797  -1.073  0.00  0.00    +0.000 HD
ENDBRANCH   3   9
BRANCH   6  11
ATOM     11  O   UNL     1       6.084  -3.284  -4.147  0.00  0.00    +0.000 OA
ATOM     12  H   UNL     1       5.846  -2.574  -4.767  0.00  0.00    +0.000 HD
ENDBRANCH   6  11
BRANCH   1  14
ATOM     13  O   UNL     1       5.555  -0.312   1.391  0.00  0.00    +0.000 OA
ATOM     14  C   UNL     1       5.270  -1.467   1.098  0.00  0.00    +0.000 C 
BRANCH  14  15
ATOM     15  C   UNL     1       4.737  -2.440   2.092  0.00  0.00    +0.000 C 
ATOM     16  C   UNL     1       4.049  -2.005   3.171  0.00  0.00    +0.000 C 
BRANCH  16  17
ATOM     17  C   UNL     1       3.497  -2.857   4.213  0.00  0.00    +0.000 A 
ATOM     18  C   UNL     1       2.633  -2.322   5.168  0.00  0.00    +0.000 A 
ATOM     19  C   UNL     1       3.833  -4.210   4.256  0.00  0.00    +0.000 A 
ATOM     20  C   UNL     1       2.105  -3.139   6.167  0.00  0.00    +0.000 A 
ATOM     21  C   UNL     1       3.303  -5.028   5.256  0.00  0.00    +0.000 A 
ATOM     22  C   UNL     1       2.440  -4.491   6.211  0.00  0.00    +0.000 A 
ENDBRANCH  16  17
ENDBRANCH  14  15
ENDBRANCH   1  14
TORSDOF 6
ENDMDL
MODEL 6
REMARK VINA RESULT:    -5.660     13.571     14.594
REMARK INTER + INTRA:          -8.383
REMARK INTER:                  -7.450
REMARK INTRA:                  -0.933
REMARK CONF_INDEPENDENT:        1.790
REMARK UNBOUND:                 0.933
REMARK  Name = 641785
REMARK  7 active torsions:
REMARK  status: ('A' for Active; 'I' for Inactive)
REMARK    1  A    between atoms: O_1  and  C_6
REMARK    2  A    between atoms: O_1  and  C_20
REMARK    3  A    between atoms: O_2  and  C_7
REMARK    4  A    between atoms: O_3  and  C_11
REMARK    5  A    between atoms: C_5  and  C_8
REMARK    6  A    between atoms: C_8  and  C_12
REMARK    7  A    between atoms: C_13  and  C_14
REMARK                            x       y       z     vdW  Elec       q    Type
REMARK                         _______ _______ _______ _____ _____    ______ ____
ROOT
ATOM      1  C   UNL     1       4.962  -4.853   2.332  0.00  0.00    +0.000 A 
ATOM      2  C   UNL     1       4.172  -4.344   3.346  0.00  0.00    +0.000 A 
ATOM      3  C   UNL     1       4.928  -6.191   1.985  0.00  0.00    +0.000 A 
ATOM      4  C   UNL     1       3.318  -5.204   4.038  0.00  0.00    +0.000 A 
ATOM      5  C   UNL     1       4.074  -7.050   2.677  0.00  0.00    +0.000 A 
ATOM      6  C   UNL     1       3.270  -6.557   3.703  0.00  0.00    +0.000 A 
ENDROOT
BRANCH   2   7
ATOM      7  O   UNL     1       4.204  -3.025   3.690  0.00  0.00    +0.000 OA
ATOM      8  C   UNL     1       3.333  -2.608   4.738  0.00  0.00    +0.000 C 
ENDBRANCH   2   7
BRANCH   3   9
ATOM      9  O   UNL     1       5.705  -6.695   0.985  0.00  0.00    +0.000 OA
ATOM     10  H   UNL     1       5.154  -7.027   0.258  0.00  0.00    +0.000 HD
ENDBRANCH   3   9
BRANCH   6  11
ATOM     11  O   UNL     1       2.436  -7.395   4.378  0.00  0.00    +0.000 OA
ATOM     12  H   UNL     1       2.616  -7.320   5.331  0.00  0.00    +0.000 HD
ENDBRANCH   6  11
BRANCH   1  14
ATOM     13  O   UNL     1       6.620  -3.197   2.220  0.00  0.00    +0.000 OA
ATOM     14  C   UNL     1       5.870  -3.940   1.597  0.00  0.00    +0.000 C 
BRANCH  14  15
ATOM     15  C   UNL     1       5.802  -3.948   0.109  0.00  0.00    +0.000 C 
ATOM     16  C   UNL     1       6.675  -3.215  -0.618  0.00  0.00    +0.000 C 
BRANCH  16  17
ATOM     17  C   UNL     1       6.693  -3.132  -2.070  0.00  0.00    +0.000 A 
ATOM     18  C   UNL     1       5.626  -2.544  -2.749  0.00  0.00    +0.000 A 
ATOM     19  C   UNL     1       7.778  -3.641  -2.784  0.00  0.00    +0.000 A 
ATOM     20  C   UNL     1       5.644  -2.465  -4.142  0.00  0.00    +0.000 A 
ATOM     21  C   UNL     1       7.796  -3.561  -4.177  0.00  0.00    +0.000 A 
ATOM     22  C   UNL     1       6.728  -2.973  -4.855  0.00  0.00    +0.000 A 
ENDBRANCH  16  17
ENDBRANCH  14  15
ENDBRANCH   1  14
TORSDOF 6
ENDMDL
MODEL 7
REMARK VINA RESULT:    -5.611     12.087     13.567
REMARK INTER + INTRA:          -8.941
REMARK INTER:                  -7.401
REMARK INTRA:                  -1.541
REMARK CONF_INDEPENDENT:        1.790
REMARK UNBOUND:                 1.541
REMARK  Name = 641785
REMARK  7 active torsions:
REMARK  status: ('A' for Active; 'I' for Inactive)
REMARK    1  A    between atoms: O_1  and  C_6
REMARK    2  A    between atoms: O_1  and  C_20
REMARK    3  A    between atoms: O_2  and  C_7
REMARK    4  A    between atoms: O_3  and  C_11
REMARK    5  A    between atoms: C_5  and  C_8
REMARK    6  A    between atoms: C_8  and  C_12
REMARK    7  A    between atoms: C_13  and  C_14
REMARK                            x       y       z     vdW  Elec       q    Type
REMARK                         _______ _______ _______ _____ _____    ______ ____
ROOT
ATOM      1  C   UNL     1       3.647  -3.526   5.031  0.00  0.00    +0.000 A 
ATOM      2  C   UNL     1       4.003  -4.848   4.838  0.00  0.00    +0.000 A 
ATOM      3  C   UNL     1       2.563  -3.172   5.815  0.00  0.00    +0.000 A 
ATOM      4  C   UNL     1       3.249  -5.851   5.449  0.00  0.00    +0.000 A 
ATOM      5  C   UNL     1       1.810  -4.175   6.425  0.00  0.00    +0.000 A 
ATOM      6  C   UNL     1       2.154  -5.514   6.243  0.00  0.00    +0.000 A 
ENDROOT
BRANCH   2   7
ATOM      7  O   UNL     1       5.070  -5.200   4.066  0.00  0.00    +0.000 OA
ATOM      8  C   UNL     1       4.826  -6.118   3.003  0.00  0.00    +0.000 C 
ENDBRANCH   2   7
BRANCH   3   9
ATOM      9  O   UNL     1       2.211  -1.869   6.007  0.00  0.00    +0.000 OA
ATOM     10  H   UNL     1       2.493  -1.324   5.256  0.00  0.00    +0.000 HD
ENDBRANCH   3   9
BRANCH   6  11
ATOM     11  O   UNL     1       1.419  -6.493   6.839  0.00  0.00    +0.000 OA
ATOM     12  H   UNL     1       0.474  -6.278   6.748  0.00  0.00    +0.000 HD
ENDBRANCH   6  11
BRANCH   1  14
ATOM     13  O   UNL     1       4.647  -1.405   4.973  0.00  0.00    +0.000 OA
ATOM     14  C   UNL     1       4.447  -2.460   4.381  0.00  0.00    +0.000 C 
BRANCH  14  15
ATOM     15  C   UNL     1       4.952  -2.717   3.004  0.00  0.00    +0.000 C 
ATOM     16  C   UNL     1       4.688  -1.842   2.007  0.00  0.00    +0.000 C 
BRANCH  16  17
ATOM     17  C   UNL     1       5.113  -1.996   0.624  0.00  0.00    +0.000 A 
ATOM     18  C   UNL     1       5.463  -3.256   0.137  0.00  0.00    +0.000 A 
ATOM     19  C   UNL     1       5.170  -0.884  -0.215  0.00  0.00    +0.000 A 
ATOM     20  C   UNL     1       5.870  -3.403  -1.188  0.00  0.00    +0.000 A 
ATOM     21  C   UNL     1       5.577  -1.032  -1.542  0.00  0.00    +0.000 A 
ATOM     22  C   UNL     1       5.928  -2.292  -2.028  0.00  0.00    +0.000 A 
ENDBRANCH  16  17
ENDBRANCH  14  15
ENDBRANCH   1  14
TORSDOF 6
ENDMDL
MODEL 8
REMARK VINA RESULT:    -5.277     12.593     13.734
REMARK INTER + INTRA:          -8.555
REMARK INTER:                  -7.067
REMARK INTRA:                  -1.488
REMARK CONF_INDEPENDENT:        1.790
REMARK UNBOUND:                 1.488
REMARK  Name = 641785
REMARK  7 active torsions:
REMARK  status: ('A' for Active; 'I' for Inactive)
REMARK    1  A    between atoms: O_1  and  C_6
REMARK    2  A    between atoms: O_1  and  C_20
REMARK    3  A    between atoms: O_2  and  C_7
REMARK    4  A    between atoms: O_3  and  C_11
REMARK    5  A    between atoms: C_5  and  C_8
REMARK    6  A    between atoms: C_8  and  C_12
REMARK    7  A    between atoms: C_13  and  C_14
REMARK                            x       y       z     vdW  Elec       q    Type
REMARK                         _______ _______ _______ _____ _____    ______ ____
ROOT
ATOM      1  C   UNL     1       5.125  -2.603   1.531  0.00  0.00    +0.000 A 
ATOM      2  C   UNL     1       5.248  -3.975   1.643  0.00  0.00    +0.000 A 
ATOM      3  C   UNL     1       4.426  -1.857   2.462  0.00  0.00    +0.000 A 
ATOM      4  C   UNL     1       4.650  -4.625   2.724  0.00  0.00    +0.000 A 
ATOM      5  C   UNL     1       3.828  -2.506   3.541  0.00  0.00    +0.000 A 
ATOM      6  C   UNL     1       3.940  -3.889   3.673  0.00  0.00    +0.000 A 
ENDROOT
BRANCH   2   7
ATOM      7  O   UNL     1       5.938  -4.713   0.727  0.00  0.00    +0.000 OA
ATOM      8  C   UNL     1       5.411  -5.998   0.402  0.00  0.00    +0.000 C 
ENDBRANCH   2   7
BRANCH   3   9
ATOM      9  O   UNL     1       4.304  -0.503   2.353  0.00  0.00    +0.000 OA
ATOM     10  H   UNL     1       5.076  -0.126   1.902  0.00  0.00    +0.000 HD
ENDBRANCH   3   9
BRANCH   6  11
ATOM     11  O   UNL     1       3.357  -4.524   4.727  0.00  0.00    +0.000 OA
ATOM     12  H   UNL     1       4.048  -4.963   5.252  0.00  0.00    +0.000 HD
ENDBRANCH   6  11
BRANCH   1  14
ATOM     13  O   UNL     1       6.286  -0.817   0.547  0.00  0.00    +0.000 OA
ATOM     14  C   UNL     1       5.761  -1.913   0.382  0.00  0.00    +0.000 C 
BRANCH  14  15
ATOM     15  C   UNL     1       5.701  -2.583  -0.946  0.00  0.00    +0.000 C 
ATOM     16  C   UNL     1       6.323  -2.037  -2.015  0.00  0.00    +0.000 C 
BRANCH  16  17
ATOM     17  C   UNL     1       6.319  -2.590  -3.360  0.00  0.00    +0.000 A 
ATOM     18  C   UNL     1       5.171  -2.504  -4.147  0.00  0.00    +0.000 A 
ATOM     19  C   UNL     1       7.465  -3.207  -3.863  0.00  0.00    +0.000 A 
ATOM     20  C   UNL     1       5.167  -3.035  -5.437  0.00  0.00    +0.000 A 
ATOM     21  C   UNL     1       7.461  -3.738  -5.154  0.00  0.00    +0.000 A 
ATOM     22  C   UNL     1       6.311  -3.652  -5.940  0.00  0.00    +0.000 A 
ENDBRANCH  16  17
ENDBRANCH  14  15
ENDBRANCH   1  14
TORSDOF 6
ENDMDL
MODEL 9
REMARK VINA RESULT:    -5.062     12.193     14.456
REMARK INTER + INTRA:          -8.509
REMARK INTER:                  -6.852
REMARK INTRA:                  -1.658
REMARK CONF_INDEPENDENT:        1.790
REMARK UNBOUND:                 1.658
REMARK  Name = 641785
REMARK  7 active torsions:
REMARK  status: ('A' for Active; 'I' for Inactive)
REMARK    1  A    between atoms: O_1  and  C_6
REMARK    2  A    between atoms: O_1  and  C_20
REMARK    3  A    between atoms: O_2  and  C_7
REMARK    4  A    between atoms: O_3  and  C_11
REMARK    5  A    between atoms: C_5  and  C_8
REMARK    6  A    between atoms: C_8  and  C_12
REMARK    7  A    between atoms: C_13  and  C_14
REMARK                            x       y       z     vdW  Elec       q    Type
REMARK                         _______ _______ _______ _____ _____    ______ ____
ROOT
ATOM      1  C   UNL     1       5.792  -3.257   1.480  0.00  0.00    +0.000 A 
ATOM      2  C   UNL     1       5.569  -1.989   1.983  0.00  0.00    +0.000 A 
ATOM      3  C   UNL     1       5.701  -3.528   0.126  0.00  0.00    +0.000 A 
ATOM      4  C   UNL     1       5.242  -0.956   1.104  0.00  0.00    +0.000 A 
ATOM      5  C   UNL     1       5.374  -2.496  -0.753  0.00  0.00    +0.000 A 
ATOM      6  C   UNL     1       5.145  -1.210  -0.264  0.00  0.00    +0.000 A 
ENDROOT
BRANCH   2   7
ATOM      7  O   UNL     1       5.659  -1.719   3.317  0.00  0.00    +0.000 OA
ATOM      8  C   UNL     1       6.351  -0.530   3.691  0.00  0.00    +0.000 C 
ENDBRANCH   2   7
BRANCH   3   9
ATOM      9  O   UNL     1       5.921  -4.777  -0.373  0.00  0.00    +0.000 OA
ATOM     10  H   UNL     1       5.880  -5.440   0.335  0.00  0.00    +0.000 HD
ENDBRANCH   3   9
BRANCH   6  11
ATOM     11  O   UNL     1       4.826  -0.202  -1.122  0.00  0.00    +0.000 OA
ATOM     12  H   UNL     1       5.546   0.452  -1.122  0.00  0.00    +0.000 HD
ENDBRANCH   6  11
BRANCH   1  14
ATOM     13  O   UNL     1       6.966  -5.197   2.081  0.00  0.00    +0.000 OA
ATOM     14  C   UNL     1       6.139  -4.354   2.414  0.00  0.00    +0.000 C 
BRANCH  14  15
ATOM     15  C   UNL     1       5.431  -4.397   3.723  0.00  0.00    +0.000 C 
ATOM     16  C   UNL     1       4.090  -4.237   3.780  0.00  0.00    +0.000 C 
BRANCH  16  17
ATOM     17  C   UNL     1       3.296  -4.243   4.998  0.00  0.00    +0.000 A 
ATOM     18  C   UNL     1       2.898  -3.038   5.578  0.00  0.00    +0.000 A 
ATOM     19  C   UNL     1       2.932  -5.453   5.587  0.00  0.00    +0.000 A 
ATOM     20  C   UNL     1       2.138  -3.043   6.747  0.00  0.00    +0.000 A 
ATOM     21  C   UNL     1       2.170  -5.458   6.757  0.00  0.00    +0.000 A 
ATOM     22  C   UNL     1       1.773  -4.253   7.336  0.00  0.00    +0.000 A 
ENDBRANCH  16  17
ENDBRANCH  14  15
ENDBRANCH   1  14
TORSDOF 6
ENDMDL
