REMARK  Name = 656967
REMARK  6 active torsions:
REMARK  status: ('A' for Active; 'I' for Inactive)
REMARK    1  A    between atoms: N_2  and  C_13
REMARK    2  A    between atoms: N_5  and  C_15
REMARK    3  A    between atoms: N_7  and  C_24
REMARK    4  A    between atoms: C_13  and  C_15
REMARK    5  A    between atoms: C_17  and  C_20
REMARK    6  A    between atoms: C_27  and  C_30
REMARK                            x       y       z     vdW  Elec       q    Type
REMARK                         _______ _______ _______ _____ _____    ______ ____
ROOT
ATOM      1  N   UNL     1      -4.749   0.265   0.251  0.00  0.00    +0.000 NA
ATOM      2  N   UNL     1      -2.289   1.684  -0.056  0.00  0.00    +0.000 N 
ATOM      3  N   UNL     1      -1.224   3.648  -0.926  0.00  0.00    +0.000 NA
ATOM      4  C   UNL     1      -3.480  -0.464   0.134  0.00  0.00    +0.000 C 
ATOM      5  C   UNL     1      -4.532   1.536   0.954  0.00  0.00    +0.000 C 
ATOM      6  C   UNL     1      -2.447   0.352  -0.647  0.00  0.00    +0.000 C 
ATOM      7  C   UNL     1      -3.535   2.418   0.199  0.00  0.00    +0.000 C 
ATOM      8  C   UNL     1      -1.131   2.426  -0.315  0.00  0.00    +0.000 A 
ATOM      9  C   UNL     1       0.107   1.888   0.063  0.00  0.00    +0.000 A 
ATOM     10  C   UNL     1       1.266   2.614  -0.188  0.00  0.00    +0.000 A 
ATOM     11  C   UNL     1      -0.075   4.324  -1.154  0.00  0.00    +0.000 A 
ATOM     12  C   UNL     1       1.182   3.856  -0.807  0.00  0.00    +0.000 A 
ENDROOT
BRANCH  10  16
ATOM     13  N   UNL     1       2.640   0.734   0.182  0.00  0.00    +0.000 NA
ATOM     14  N   UNL     1       3.970  -1.167   0.539  0.00  0.00    +0.000 N 
ATOM     15  N   UNL     1       4.932   0.944   0.895  0.00  0.00    +0.000 NA
ATOM     16  C   UNL     1       2.555   2.079   0.194  0.00  0.00    +0.000 A 
ATOM     17  C   UNL     1       3.596   2.914   0.538  0.00  0.00    +0.000 A 
ATOM     18  C   UNL     1       3.841   0.240   0.539  0.00  0.00    +0.000 A 
ATOM     19  C   UNL     1       4.774   2.284   0.884  0.00  0.00    +0.000 A 
ATOM     20  H   UNL     1       4.848  -1.476   0.944  0.00  0.00    +0.000 HD
BRANCH  14  22
ATOM     21 CL   UNL     1      -0.071  -2.738  -2.178  0.00  0.00    +0.000 Cl
ATOM     22  C   UNL     1       3.071  -2.205   0.232  0.00  0.00    +0.000 A 
ATOM     23  C   UNL     1       2.058  -2.000  -0.707  0.00  0.00    +0.000 A 
ATOM     24  C   UNL     1       3.190  -3.444   0.865  0.00  0.00    +0.000 A 
ATOM     25  C   UNL     1       1.288  -4.266  -0.378  0.00  0.00    +0.000 A 
ATOM     26  C   UNL     1       1.167  -3.030  -1.011  0.00  0.00    +0.000 A 
ATOM     27  C   UNL     1       2.299  -4.473   0.561  0.00  0.00    +0.000 A 
ATOM     28  C   UNL     1       0.355  -5.395  -0.676  0.00  0.00    +0.000 C 
ENDBRANCH  14  22
ENDBRANCH  10  16
BRANCH   1  29
ATOM     29  C   UNL     1      -5.744  -0.545   0.952  0.00  0.00    +0.000 C 
BRANCH  29  30
ATOM     30  C   UNL     1      -6.018  -1.830   0.176  0.00  0.00    +0.000 C 
BRANCH  30  31
ATOM     31  N   UNL     1      -6.997  -2.647   0.884  0.00  0.00    +0.000 NA
ATOM     32  H   UNL     1      -6.633  -2.904   1.801  0.00  0.00    +0.000 HD
ATOM     33  H   UNL     1      -7.140  -3.520   0.379  0.00  0.00    +0.000 HD
ENDBRANCH  30  31
ENDBRANCH  29  30
ENDBRANCH   1  29
TORSDOF 5
