REMARK  Name = 208951
REMARK  4 active torsions:
REMARK  status: ('A' for Active; 'I' for Inactive)
REMARK    1  A    between atoms: N_3  and  C_10
REMARK    2  A    between atoms: N_4  and  C_11
REMARK    3  A    between atoms: C_10  and  C_12
REMARK    4  A    between atoms: C_20  and  C_24
REMARK                            x       y       z     vdW  Elec       q    Type
REMARK                         _______ _______ _______ _____ _____    ______ ____
ROOT
ATOM      1  N   UNL     1      -0.275  -1.372   0.615  0.00  0.00    +0.000 NA
ATOM      2  N   UNL     1       2.129   0.051   0.019  0.00  0.00    +0.000 N 
ATOM      3  C   UNL     1      -0.005  -0.908  -0.751  0.00  0.00    +0.000 C 
ATOM      4  C   UNL     1       0.984  -1.732   1.278  0.00  0.00    +0.000 C 
ATOM      5  C   UNL     1       0.907   0.321  -0.745  0.00  0.00    +0.000 C 
ATOM      6  C   UNL     1       1.929  -0.530   1.353  0.00  0.00    +0.000 C 
ENDROOT
BRANCH   2  10
ATOM      7  O   UNL     1       4.879  -0.946   0.359  0.00  0.00    +0.000 OA
ATOM      8  O   UNL     1       6.966  -1.894   0.672  0.00  0.00    +0.000 OA
ATOM      9  N   UNL     1       6.758   0.333   0.016  0.00  0.00    +0.000 N 
ATOM     10  C   UNL     1       3.268   0.837  -0.191  0.00  0.00    +0.000 A 
ATOM     11  C   UNL     1       4.557   0.346  -0.025  0.00  0.00    +0.000 A 
ATOM     12  C   UNL     1       3.172   2.186  -0.589  0.00  0.00    +0.000 A 
ATOM     13  C   UNL     1       5.671   1.129  -0.236  0.00  0.00    +0.000 A 
ATOM     14  C   UNL     1       4.319   2.978  -0.801  0.00  0.00    +0.000 A 
ATOM     15  C   UNL     1       5.598   2.447  -0.624  0.00  0.00    +0.000 A 
ATOM     16  C   UNL     1       6.286  -0.919   0.375  0.00  0.00    +0.000 A 
ATOM     17  H   UNL     1       7.726   0.620  -0.052  0.00  0.00    +0.000 HD
ENDBRANCH   2  10
BRANCH   1  18
ATOM     18  C   UNL     1      -1.190  -2.512   0.598  0.00  0.00    +0.000 C 
BRANCH  18  19
ATOM     19  C   UNL     1      -2.503  -2.144  -0.038  0.00  0.00    +0.000 A 
ATOM     20  C   UNL     1      -3.119  -0.948   0.307  0.00  0.00    +0.000 A 
ATOM     21  C   UNL     1      -3.081  -3.004  -0.962  0.00  0.00    +0.000 A 
ATOM     22  C   UNL     1      -4.336  -0.607  -0.284  0.00  0.00    +0.000 A 
ATOM     23  C   UNL     1      -4.297  -2.663  -1.552  0.00  0.00    +0.000 A 
ATOM     24  C   UNL     1      -4.925  -1.465  -1.213  0.00  0.00    +0.000 A 
BRANCH  22  25
ATOM     25  C   UNL     1      -4.987   0.637   0.066  0.00  0.00    +0.000 A 
ATOM     26  C   UNL     1      -4.710   1.797  -0.657  0.00  0.00    +0.000 A 
ATOM     27  C   UNL     1      -5.893   0.676   1.127  0.00  0.00    +0.000 A 
ATOM     28  C   UNL     1      -5.338   2.996  -0.320  0.00  0.00    +0.000 A 
ATOM     29  C   UNL     1      -6.520   1.875   1.464  0.00  0.00    +0.000 A 
ATOM     30  C   UNL     1      -6.243   3.035   0.740  0.00  0.00    +0.000 A 
ENDBRANCH  22  25
ENDBRANCH  18  19
ENDBRANCH   1  18
TORSDOF 4
