REMARK  Name = 216456
REMARK  3 active torsions:
REMARK  status: ('A' for Active; 'I' for Inactive)
REMARK    1  A    between atoms: C_8  and  C_10
REMARK    2  A    between atoms: C_9  and  C_13
REMARK    3  A    between atoms: C_13  and  C_17
REMARK                            x       y       z     vdW  Elec       q    Type
REMARK                         _______ _______ _______ _____ _____    ______ ____
ROOT
ATOM      1  N   UNL     1      -1.015  -0.308   0.091  0.00  0.00    +0.000 N 
ATOM      2  N   UNL     1      -0.638   0.933   0.508  0.00  0.00    +0.000 NA
ATOM      3  N   UNL     1      -0.030  -2.441  -0.451  0.00  0.00    +0.000 NA
ATOM      4  C   UNL     1       0.095  -1.149  -0.037  0.00  0.00    +0.000 A 
ATOM      5  C   UNL     1      -2.311  -0.764  -0.205  0.00  0.00    +0.000 A 
ATOM      6  C   UNL     1       1.194  -0.405   0.323  0.00  0.00    +0.000 A 
ATOM      7  C   UNL     1       0.684   0.858   0.646  0.00  0.00    +0.000 A 
ATOM      8  C   UNL     1      -2.478  -2.032  -0.616  0.00  0.00    +0.000 A 
ATOM      9  C   UNL     1      -1.235  -2.837  -0.718  0.00  0.00    +0.000 A 
ENDROOT
BRANCH   5  11
ATOM     10  N   UNL     1      -5.731   1.758   0.209  0.00  0.00    +0.000 NA
ATOM     11  C   UNL     1      -3.491   0.107  -0.062  0.00  0.00    +0.000 A 
ATOM     12  C   UNL     1      -4.174   0.165   1.148  0.00  0.00    +0.000 A 
ATOM     13  C   UNL     1      -3.928   0.874  -1.137  0.00  0.00    +0.000 A 
ATOM     14  C   UNL     1      -5.277   0.999   1.232  0.00  0.00    +0.000 A 
ATOM     15  C   UNL     1      -5.043   1.675  -0.952  0.00  0.00    +0.000 A 
ENDBRANCH   5  11
BRANCH   6  17
ATOM     16  O   UNL     1       2.875  -2.047   0.560  0.00  0.00    +0.000 OA
ATOM     17  C   UNL     1       2.551  -0.863   0.346  0.00  0.00    +0.000 C 
BRANCH  17  19
ATOM     18  N   UNL     1       3.387   1.088  -0.721  0.00  0.00    +0.000 NA
ATOM     19  C   UNL     1       3.689   0.076   0.093  0.00  0.00    +0.000 A 
ATOM     20  C   UNL     1       4.889  -0.173   0.692  0.00  0.00    +0.000 A 
ATOM     21  C   UNL     1       5.911   0.730   0.424  0.00  0.00    +0.000 A 
ATOM     22  C   UNL     1       4.405   1.945  -0.959  0.00  0.00    +0.000 A 
ATOM     23  C   UNL     1       5.673   1.812  -0.416  0.00  0.00    +0.000 A 
ENDBRANCH  17  19
ENDBRANCH   6  17
TORSDOF 3
