REMARK  Name = 10249182
REMARK  4 active torsions:
REMARK  status: ('A' for Active; 'I' for Inactive)
REMARK    1  A    between atoms: N_3  and  C_7
REMARK    2  A    between atoms: N_3  and  C_13
REMARK    3  A    between atoms: C_9  and  C_12
REMARK    4  A    between atoms: C_13  and  C_16
REMARK                            x       y       z     vdW  Elec       q    Type
REMARK                         _______ _______ _______ _____ _____    ______ ____
ROOT
ATOM      1 BR   UNL     1      -3.363  -4.421  -0.035  0.00  0.00    +0.000 Br
ATOM      2  N   UNL     1      -1.504  -2.131  -0.008  0.00  0.00    +0.000 N 
ATOM      3  N   UNL     1       0.509  -3.099   0.011  0.00  0.00    +0.000 NA
ATOM      4  C   UNL     1       0.367  -0.593   0.021  0.00  0.00    +0.000 A 
ATOM      5  C   UNL     1      -0.126  -1.943   0.009  0.00  0.00    +0.000 A 
ATOM      6  C   UNL     1      -1.996   0.183  -0.005  0.00  0.00    +0.000 A 
ATOM      7  C   UNL     1      -0.546   0.407   0.014  0.00  0.00    +0.000 A 
ATOM      8  C   UNL     1      -2.429  -1.094  -0.014  0.00  0.00    +0.000 A 
ATOM      9  C   UNL     1      -1.723  -3.485  -0.014  0.00  0.00    +0.000 A 
ATOM     10  C   UNL     1      -0.473  -4.055  -0.004  0.00  0.00    +0.000 A 
ENDROOT
BRANCH   6  11
ATOM     11  C   UNL     1      -2.981   1.280  -0.003  0.00  0.00    +0.000 A 
ATOM     12  C   UNL     1      -3.461   1.784   1.206  0.00  0.00    +0.000 A 
ATOM     13  C   UNL     1      -3.434   1.815  -1.209  0.00  0.00    +0.000 A 
ATOM     14  C   UNL     1      -4.393   2.823   1.209  0.00  0.00    +0.000 A 
ATOM     15  C   UNL     1      -4.365   2.853  -1.207  0.00  0.00    +0.000 A 
ATOM     16  C   UNL     1      -4.845   3.357   0.003  0.00  0.00    +0.000 A 
ENDBRANCH   6  11
BRANCH   4  17
ATOM     17  N   UNL     1       1.715  -0.356   0.037  0.00  0.00    +0.000 N 
ATOM     18  H   UNL     1       2.333  -1.161   0.048  0.00  0.00    +0.000 HD
BRANCH  17  19
ATOM     19  C   UNL     1       2.259   0.968   0.050  0.00  0.00    +0.000 C 
BRANCH  19  22
ATOM     20  N   UNL     1       5.800   0.969  -1.229  0.00  0.00    +0.000 NA
ATOM     21  N   UNL     1       5.850   0.925   1.180  0.00  0.00    +0.000 NA
ATOM     22  C   UNL     1       3.760   0.959   0.018  0.00  0.00    +0.000 A 
ATOM     23  C   UNL     1       4.452   0.976  -1.164  0.00  0.00    +0.000 A 
ATOM     24  C   UNL     1       4.501   0.934   1.171  0.00  0.00    +0.000 A 
ATOM     25  C   UNL     1       6.426   0.944  -0.037  0.00  0.00    +0.000 A 
ENDBRANCH  19  22
ENDBRANCH  17  19
ENDBRANCH   4  17
TORSDOF 4
