REMARK  Name = 11978813
REMARK  7 active torsions:
REMARK  status: ('A' for Active; 'I' for Inactive)
REMARK    1  A    between atoms: O_2  and  C_17
REMARK    2  A    between atoms: O_2  and  C_23
REMARK    3  A    between atoms: N_4  and  C_11
REMARK    4  A    between atoms: N_5  and  C_13
REMARK    5  A    between atoms: C_11  and  C_12
REMARK    6  A    between atoms: C_12  and  C_14
REMARK    7  A    between atoms: C_14  and  C_17
REMARK                            x       y       z     vdW  Elec       q    Type
REMARK                         _______ _______ _______ _____ _____    ______ ____
ROOT
ATOM      1  C   UNL     1       0.922   1.285  -0.152  0.00  0.00    +0.000 C 
ENDROOT
BRANCH   1   2
ATOM      2  N   UNL     1       2.148   0.568  -0.499  0.00  0.00    +0.000 NA
ATOM      3  N   UNL     1       4.877  -0.225  -0.209  0.00  0.00    +0.000 N 
ATOM      4  C   UNL     1       3.231   1.513  -0.796  0.00  0.00    +0.000 C 
ATOM      5  C   UNL     1       2.550  -0.325   0.594  0.00  0.00    +0.000 C 
ATOM      6  C   UNL     1       4.504   0.775  -1.217  0.00  0.00    +0.000 C 
ATOM      7  C   UNL     1       3.801  -1.124   0.221  0.00  0.00    +0.000 C 
BRANCH   3   9
ATOM      8  S   UNL     1       9.766   0.958   0.327  0.00  0.00    +0.000 S 
ATOM      9  C   UNL     1       6.204  -0.668  -0.181  0.00  0.00    +0.000 A 
ATOM     10  C   UNL     1       7.304   0.224   0.036  0.00  0.00    +0.000 A 
ATOM     11  C   UNL     1       6.483  -2.039  -0.372  0.00  0.00    +0.000 A 
ATOM     12  C   UNL     1       8.606  -0.287   0.051  0.00  0.00    +0.000 A 
ATOM     13  C   UNL     1       7.301   1.642   0.254  0.00  0.00    +0.000 A 
ATOM     14  C   UNL     1       7.784  -2.523  -0.353  0.00  0.00    +0.000 A 
ATOM     15  C   UNL     1       8.861  -1.659  -0.142  0.00  0.00    +0.000 A 
ATOM     16  C   UNL     1       8.562   2.160   0.425  0.00  0.00    +0.000 A 
ENDBRANCH   3   9
ENDBRANCH   1   2
BRANCH   1  17
ATOM     17  C   UNL     1      -0.221   0.299   0.086  0.00  0.00    +0.000 C 
BRANCH  17  18
ATOM     18  C   UNL     1      -1.515   1.029   0.442  0.00  0.00    +0.000 C 
BRANCH  18  19
ATOM     19  C   UNL     1      -2.651   0.054   0.722  0.00  0.00    +0.000 C 
BRANCH  19  20
ATOM     20  O   UNL     1      -3.838   0.773   1.030  0.00  0.00    +0.000 OA
BRANCH  20  23
ATOM     21  O   UNL     1     -10.671   1.228  -0.899  0.00  0.00    +0.000 OA
ATOM     22  N   UNL     1      -8.459   1.099  -0.273  0.00  0.00    +0.000 N 
ATOM     23  C   UNL     1      -5.027   0.168   0.714  0.00  0.00    +0.000 A 
ATOM     24  C   UNL     1      -6.128   0.949   0.385  0.00  0.00    +0.000 A 
ATOM     25  C   UNL     1      -7.335   0.323   0.063  0.00  0.00    +0.000 A 
ATOM     26  C   UNL     1      -5.115  -1.220   0.727  0.00  0.00    +0.000 A 
ATOM     27  C   UNL     1      -7.440  -1.072   0.072  0.00  0.00    +0.000 A 
ATOM     28  C   UNL     1      -6.323  -1.844   0.405  0.00  0.00    +0.000 A 
ATOM     29  C   UNL     1      -8.720  -1.687  -0.271  0.00  0.00    +0.000 A 
ATOM     30  C   UNL     1      -9.685   0.556  -0.603  0.00  0.00    +0.000 A 
ATOM     31  C   UNL     1      -9.777  -0.929  -0.588  0.00  0.00    +0.000 A 
ATOM     32  H   UNL     1      -8.358   2.111  -0.272  0.00  0.00    +0.000 HD
ENDBRANCH  20  23
ENDBRANCH  19  20
ENDBRANCH  18  19
ENDBRANCH  17  18
ENDBRANCH   1  17
TORSDOF 7
