REMARK  Name = 71533696
REMARK  5 active torsions:
REMARK  status: ('A' for Active; 'I' for Inactive)
REMARK    1  A    between atoms: C_12  and  C_18
REMARK    2  A    between atoms: C_13  and  C_16
REMARK    3  A    between atoms: C_17  and  C_26
REMARK    4  A    between atoms: C_22  and  C_25
REMARK    5  A    between atoms: C_27  and  C_28
REMARK                            x       y       z     vdW  Elec       q    Type
REMARK                         _______ _______ _______ _____ _____    ______ ____
ROOT
ATOM      1  N   UNL     1      -0.275  -3.033  -0.012  0.00  0.00    +0.000 N 
ATOM      2  N   UNL     1      -0.278  -0.625   0.006  0.00  0.00    +0.000 NA
ATOM      3  N   UNL     1       0.606  -4.071  -0.028  0.00  0.00    +0.000 NA
ATOM      4  C   UNL     1      -1.675  -3.093   0.005  0.00  0.00    +0.000 A 
ATOM      5  C   UNL     1      -1.579  -0.684   0.007  0.00  0.00    +0.000 A 
ATOM      6  C   UNL     1       0.394  -1.809  -0.007  0.00  0.00    +0.000 A 
ATOM      7  C   UNL     1      -2.379  -1.949   0.018  0.00  0.00    +0.000 A 
ATOM      8  C   UNL     1       1.739  -2.097  -0.020  0.00  0.00    +0.000 A 
ATOM      9  C   UNL     1       1.807  -3.495  -0.033  0.00  0.00    +0.000 A 
ENDROOT
BRANCH   5  10
ATOM     10  C   UNL     1      -2.352   0.586   0.017  0.00  0.00    +0.000 A 
ATOM     11  C   UNL     1      -3.616   0.638  -0.572  0.00  0.00    +0.000 A 
ATOM     12  C   UNL     1      -1.814   1.726   0.613  0.00  0.00    +0.000 A 
ATOM     13  C   UNL     1      -3.802   2.969   0.033  0.00  0.00    +0.000 A 
ATOM     14  C   UNL     1      -4.341   1.829  -0.564  0.00  0.00    +0.000 A 
ATOM     15  C   UNL     1      -2.539   2.918   0.621  0.00  0.00    +0.000 A 
BRANCH  13  19
ATOM     16  F   UNL     1      -5.791   4.123  -0.573  0.00  0.00    +0.000 F 
ATOM     17  F   UNL     1      -4.848   4.711   1.296  0.00  0.00    +0.000 F 
ATOM     18  F   UNL     1      -3.945   5.273  -0.594  0.00  0.00    +0.000 F 
ATOM     19  C   UNL     1      -4.578   4.243   0.042  0.00  0.00    +0.000 C 
ENDBRANCH  13  19
ENDBRANCH   5  10
BRANCH   4  23
ATOM     20  F   UNL     1      -2.007  -5.148  -1.080  0.00  0.00    +0.000 F 
ATOM     21  F   UNL     1      -1.968  -5.151   1.099  0.00  0.00    +0.000 F 
ATOM     22  F   UNL     1      -3.679  -4.313   0.041  0.00  0.00    +0.000 F 
ATOM     23  C   UNL     1      -2.338  -4.438   0.017  0.00  0.00    +0.000 C 
ENDBRANCH   4  23
BRANCH   8  24
ATOM     24  C   UNL     1       2.808  -1.160  -0.021  0.00  0.00    +0.000 C 
ATOM     25  C   UNL     1       3.712  -0.369  -0.022  0.00  0.00    +0.000 C 
BRANCH  25  28
ATOM     26  N   UNL     1       5.597   2.783  -0.580  0.00  0.00    +0.000 NA
ATOM     27  N   UNL     1       7.850   3.368  -0.067  0.00  0.00    +0.000 N 
ATOM     28  C   UNL     1       4.787   0.574  -0.024  0.00  0.00    +0.000 A 
ATOM     29  C   UNL     1       6.031   0.242   0.503  0.00  0.00    +0.000 A 
ATOM     30  C   UNL     1       4.623   1.845  -0.548  0.00  0.00    +0.000 A 
ATOM     31  C   UNL     1       7.058   1.180   0.488  0.00  0.00    +0.000 A 
ATOM     32  C   UNL     1       6.793   2.424  -0.060  0.00  0.00    +0.000 A 
ATOM     33  H   UNL     1       8.558   3.303   0.654  0.00  0.00    +0.000 HD
ATOM     34  H   UNL     1       7.650   4.278  -0.462  0.00  0.00    +0.000 HD
ENDBRANCH  25  28
ENDBRANCH   8  24
TORSDOF 5
