REMARK  Name = 59473233
REMARK  3 active torsions:
REMARK  status: ('A' for Active; 'I' for Inactive)
REMARK    1  A    between atoms: N_2  and  C_13
REMARK    2  A    between atoms: N_3  and  C_16
REMARK    3  A    between atoms: C_21  and  C_22
REMARK                            x       y       z     vdW  Elec       q    Type
REMARK                         _______ _______ _______ _____ _____    ______ ____
ROOT
ATOM      1  N   UNL     1      -0.147   2.684  -0.553  0.00  0.00    +0.000 N 
ATOM      2  N   UNL     1       3.422   2.706   0.427  0.00  0.00    +0.000 N 
ATOM      3  N   UNL     1       1.425   0.965  -0.376  0.00  0.00    +0.000 NA
ATOM      4  N   UNL     1       2.059   4.467   0.307  0.00  0.00    +0.000 NA
ATOM      5  C   UNL     1       1.126   2.245  -0.271  0.00  0.00    +0.000 A 
ATOM      6  C   UNL     1       2.163   3.168   0.146  0.00  0.00    +0.000 A 
ATOM      7  C   UNL     1       2.719   0.530  -0.089  0.00  0.00    +0.000 A 
ATOM      8  C   UNL     1       3.708   1.361   0.310  0.00  0.00    +0.000 A 
ATOM      9  C   UNL     1       4.176   3.785   0.794  0.00  0.00    +0.000 A 
ATOM     10  C   UNL     1       3.314   4.858   0.712  0.00  0.00    +0.000 A 
ATOM     11  H   UNL     1      -0.277   3.659  -0.808  0.00  0.00    +0.000 HD
ENDROOT
BRANCH   7  14
ATOM     12  N   UNL     1       2.012  -4.297   0.987  0.00  0.00    +0.000 N 
ATOM     13  N   UNL     1       2.564  -5.449   0.571  0.00  0.00    +0.000 NA
ATOM     14  C   UNL     1       2.987  -0.920  -0.214  0.00  0.00    +0.000 A 
ATOM     15  C   UNL     1       2.539  -3.178   0.400  0.00  0.00    +0.000 A 
ATOM     16  C   UNL     1       2.246  -1.822   0.557  0.00  0.00    +0.000 A 
ATOM     17  C   UNL     1       3.515  -3.647  -0.472  0.00  0.00    +0.000 A 
ATOM     18  C   UNL     1       3.974  -1.364  -1.096  0.00  0.00    +0.000 A 
ATOM     19  C   UNL     1       4.252  -2.729  -1.239  0.00  0.00    +0.000 A 
ATOM     20  C   UNL     1       3.478  -5.050  -0.316  0.00  0.00    +0.000 A 
ATOM     21  H   UNL     1       1.275  -4.343   1.680  0.00  0.00    +0.000 HD
ENDBRANCH   7  14
BRANCH   1  25
ATOM     22  C   UNL     1      -3.696   0.523  -0.084  0.00  0.00    +0.000 A 
ATOM     23  C   UNL     1      -3.596   1.492  -1.083  0.00  0.00    +0.000 A 
ATOM     24  C   UNL     1      -2.612   0.276   0.758  0.00  0.00    +0.000 A 
ATOM     25  C   UNL     1      -1.329   1.966  -0.396  0.00  0.00    +0.000 A 
ATOM     26  C   UNL     1      -2.412   2.214  -1.239  0.00  0.00    +0.000 A 
ATOM     27  C   UNL     1      -1.429   0.997   0.603  0.00  0.00    +0.000 A 
BRANCH  22  29
ATOM     28  O   UNL     1      -7.246  -1.720   0.115  0.00  0.00    +0.000 OA
ATOM     29  N   UNL     1      -4.883  -0.200   0.072  0.00  0.00    +0.000 N 
ATOM     30  C   UNL     1      -4.829  -1.661  -0.073  0.00  0.00    +0.000 C 
ATOM     31  C   UNL     1      -6.167   0.416  -0.282  0.00  0.00    +0.000 C 
ATOM     32  C   UNL     1      -6.036  -2.291   0.612  0.00  0.00    +0.000 C 
ATOM     33  C   UNL     1      -7.303  -0.326   0.413  0.00  0.00    +0.000 C 
ENDBRANCH  22  29
ENDBRANCH   1  25
TORSDOF 3
