REMARK  Name = 49848070
REMARK  6 active torsions:
REMARK  status: ('A' for Active; 'I' for Inactive)
REMARK    1  A    between atoms: N_7  and  C_12
REMARK    2  A    between atoms: N_7  and  C_18
REMARK    3  A    between atoms: N_10  and  C_37
REMARK    4  A    between atoms: C_19  and  C_22
REMARK    5  A    between atoms: C_24  and  C_28
REMARK    6  A    between atoms: C_25  and  C_32
REMARK                            x       y       z     vdW  Elec       q    Type
REMARK                         _______ _______ _______ _____ _____    ______ ____
ROOT
ATOM      1  N   UNL     1      -1.127  -0.959  -0.378  0.00  0.00    +0.000 N 
ATOM      2  N   UNL     1      -3.348  -1.630  -0.723  0.00  0.00    +0.000 NA
ATOM      3  N   UNL     1      -4.686  -1.394  -0.686  0.00  0.00    +0.000 NA
ATOM      4  C   UNL     1       1.670  -1.643  -0.623  0.00  0.00    +0.000 C 
ATOM      5  C   UNL     1       0.894  -1.900   0.668  0.00  0.00    +0.000 C 
ATOM      6  C   UNL     1       1.074  -0.443  -1.358  0.00  0.00    +0.000 C 
ATOM      7  C   UNL     1      -0.599  -2.086   0.399  0.00  0.00    +0.000 C 
ATOM      8  C   UNL     1      -0.417  -0.637  -1.624  0.00  0.00    +0.000 C 
ATOM      9  C   UNL     1      -2.494  -0.664  -0.320  0.00  0.00    +0.000 A 
ATOM     10  C   UNL     1      -2.912   0.581   0.138  0.00  0.00    +0.000 A 
ATOM     11  C   UNL     1      -4.293   0.824   0.176  0.00  0.00    +0.000 A 
ATOM     12  C   UNL     1      -2.018   1.581   0.556  0.00  0.00    +0.000 A 
ATOM     13  C   UNL     1      -5.135  -0.198  -0.248  0.00  0.00    +0.000 A 
ATOM     14  C   UNL     1      -4.767   2.066   0.631  0.00  0.00    +0.000 A 
ATOM     15  C   UNL     1      -2.499   2.811   1.006  0.00  0.00    +0.000 A 
ATOM     16  C   UNL     1      -3.871   3.053   1.044  0.00  0.00    +0.000 A 
ENDROOT
BRANCH  13  19
ATOM     17  N   UNL     1      -7.377  -0.457   0.776  0.00  0.00    +0.000 N 
ATOM     18  N   UNL     1      -8.688  -0.286   0.535  0.00  0.00    +0.000 NA
ATOM     19  C   UNL     1      -6.574  -0.101  -0.268  0.00  0.00    +0.000 A 
ATOM     20  C   UNL     1      -7.418   0.333  -1.260  0.00  0.00    +0.000 A 
ATOM     21  C   UNL     1      -8.707   0.197  -0.710  0.00  0.00    +0.000 A 
ATOM     22  C   UNL     1      -6.962  -0.977   2.059  0.00  0.00    +0.000 C 
ENDBRANCH  13  19
BRANCH   4  24
ATOM     23  O   UNL     1       2.788   0.466   0.991  0.00  0.00    +0.000 OA
ATOM     24  N   UNL     1       3.070  -1.429  -0.349  0.00  0.00    +0.000 N 
ATOM     25  C   UNL     1       3.998  -2.386  -0.959  0.00  0.00    +0.000 C 
ATOM     26  C   UNL     1       3.517  -0.367   0.454  0.00  0.00    +0.000 C 
BRANCH  26  28
ATOM     27  F   UNL     1       9.015   0.201   1.352  0.00  0.00    +0.000 F 
ATOM     28  C   UNL     1       4.963  -0.206   0.672  0.00  0.00    +0.000 A 
ATOM     29  C   UNL     1       5.739   0.575  -0.185  0.00  0.00    +0.000 A 
ATOM     30  C   UNL     1       5.556  -0.849   1.759  0.00  0.00    +0.000 A 
ATOM     31  C   UNL     1       7.108   0.712   0.045  0.00  0.00    +0.000 A 
ATOM     32  C   UNL     1       6.925  -0.712   1.988  0.00  0.00    +0.000 A 
ATOM     33  C   UNL     1       7.701   0.069   1.132  0.00  0.00    +0.000 A 
BRANCH  29  37
ATOM     34  F   UNL     1       6.046   1.986  -2.073  0.00  0.00    +0.000 F 
ATOM     35  F   UNL     1       4.539   0.428  -2.249  0.00  0.00    +0.000 F 
ATOM     36  F   UNL     1       4.157   2.168  -1.011  0.00  0.00    +0.000 F 
ATOM     37  C   UNL     1       5.130   1.275  -1.356  0.00  0.00    +0.000 C 
ENDBRANCH  29  37
ENDBRANCH  26  28
ENDBRANCH   4  24
TORSDOF 4
