REMARK  Name = 25016615
REMARK  5 active torsions:
REMARK  status: ('A' for Active; 'I' for Inactive)
REMARK    1  A    between atoms: O_3  and  C_23
REMARK    2  A    between atoms: O_3  and  C_32
REMARK    3  A    between atoms: N_5  and  C_16
REMARK    4  A    between atoms: N_6  and  C_17
REMARK    5  A    between atoms: C_15  and  C_17
REMARK                            x       y       z     vdW  Elec       q    Type
REMARK                         _______ _______ _______ _____ _____    ______ ____
ROOT
ATOM      1  O   UNL     1       1.318  -3.146  -1.104  0.00  0.00    +0.000 OA
ATOM      2  N   UNL     1      -0.383  -1.571  -0.938  0.00  0.00    +0.000 N 
ATOM      3  N   UNL     1      -3.112  -0.837  -0.309  0.00  0.00    +0.000 N 
ATOM      4  C   UNL     1      -1.290  -2.492  -0.257  0.00  0.00    +0.000 C 
ATOM      5  C   UNL     1      -0.894  -0.222  -1.189  0.00  0.00    +0.000 C 
ATOM      6  C   UNL     1      -2.750  -2.224  -0.614  0.00  0.00    +0.000 C 
ATOM      7  C   UNL     1      -2.041   0.161  -0.253  0.00  0.00    +0.000 C 
ATOM      8  C   UNL     1       0.886  -2.009  -1.315  0.00  0.00    +0.000 C 
ENDROOT
BRANCH   3  10
ATOM      9 CL   UNL     1      -8.729   0.614   0.804  0.00  0.00    +0.000 Cl
ATOM     10  C   UNL     1      -4.434  -0.490  -0.042  0.00  0.00    +0.000 A 
ATOM     11  C   UNL     1      -4.717   0.550   0.844  0.00  0.00    +0.000 A 
ATOM     12  C   UNL     1      -5.475  -1.182  -0.661  0.00  0.00    +0.000 A 
ATOM     13  C   UNL     1      -6.041   0.898   1.111  0.00  0.00    +0.000 A 
ATOM     14  C   UNL     1      -6.799  -0.835  -0.394  0.00  0.00    +0.000 A 
ATOM     15  C   UNL     1      -7.082   0.205   0.492  0.00  0.00    +0.000 A 
BRANCH  13  16
ATOM     16  O   UNL     1      -6.289   1.917   1.981  0.00  0.00    +0.000 OA
ATOM     17  C   UNL     1      -6.384   3.229   1.430  0.00  0.00    +0.000 C 
ENDBRANCH  13  16
ENDBRANCH   3  10
BRANCH   8  18
ATOM     18  C   UNL     1       1.759  -0.999  -2.017  0.00  0.00    +0.000 C 
BRANCH  18  19
ATOM     19  N   UNL     1       2.505  -0.307  -1.000  0.00  0.00    +0.000 N 
ATOM     20  N   UNL     1       3.299  -0.933  -0.098  0.00  0.00    +0.000 N 
ATOM     21  N   UNL     1       2.660   1.912  -2.112  0.00  0.00    +0.000 NA
ATOM     22  N   UNL     1       5.307  -1.602   1.984  0.00  0.00    +0.000 NA
ATOM     23  N   UNL     1       6.131   0.562   1.775  0.00  0.00    +0.000 NA
ATOM     24  C   UNL     1       3.058   0.979  -1.230  0.00  0.00    +0.000 A 
ATOM     25  C   UNL     1       4.162   1.140  -0.358  0.00  0.00    +0.000 A 
ATOM     26  C   UNL     1       4.302  -0.124   0.395  0.00  0.00    +0.000 C 
ATOM     27  C   UNL     1       4.882   2.317  -0.375  0.00  0.00    +0.000 A 
ATOM     28  C   UNL     1       5.207  -0.377   1.343  0.00  0.00    +0.000 C 
ATOM     29  C   UNL     1       4.481   3.305  -1.271  0.00  0.00    +0.000 A 
ATOM     30  C   UNL     1       3.387   3.058  -2.103  0.00  0.00    +0.000 A 
ATOM     31  C   UNL     1       6.278  -1.437   2.806  0.00  0.00    +0.000 C 
ATOM     32  C   UNL     1       6.801  -0.062   2.673  0.00  0.00    +0.000 C 
ATOM     33  H   UNL     1       3.082  -1.833   0.309  0.00  0.00    +0.000 HD
ENDBRANCH  18  19
ENDBRANCH   8  18
TORSDOF 4
