REMARK  Name = 46911863
REMARK  4 active torsions:
REMARK  status: ('A' for Active; 'I' for Inactive)
REMARK    1  A    between atoms: N_7  and  C_28
REMARK    2  A    between atoms: C_10  and  C_11
REMARK    3  A    between atoms: C_10  and  C_12
REMARK    4  A    between atoms: C_15  and  C_19
REMARK                            x       y       z     vdW  Elec       q    Type
REMARK                         _______ _______ _______ _____ _____    ______ ____
ROOT
ATOM      1  N   UNL     1      -0.996  -1.853  -0.141  0.00  0.00    +0.000 N 
ATOM      2  N   UNL     1      -1.557  -0.667   0.202  0.00  0.00    +0.000 NA
ATOM      3  N   UNL     1       0.391  -3.548  -0.224  0.00  0.00    +0.000 NA
ATOM      4  N   UNL     1      -0.638  -3.790  -1.111  0.00  0.00    +0.000 NA
ATOM      5  C   UNL     1       0.160  -2.387   0.347  0.00  0.00    +0.000 A 
ATOM      6  C   UNL     1      -1.466  -2.768  -1.055  0.00  0.00    +0.000 A 
ATOM      7  C   UNL     1      -2.664  -0.404  -0.433  0.00  0.00    +0.000 A 
ATOM      8  C   UNL     1      -2.673  -2.465  -1.714  0.00  0.00    +0.000 A 
ATOM      9  C   UNL     1      -3.301  -1.315  -1.439  0.00  0.00    +0.000 A 
ENDROOT
BRANCH   7  12
ATOM     10  N   UNL     1      -3.909   2.823   0.672  0.00  0.00    +0.000 N 
ATOM     11  N   UNL     1      -4.908   2.561  -0.189  0.00  0.00    +0.000 NA
ATOM     12  C   UNL     1      -3.373   0.871  -0.148  0.00  0.00    +0.000 A 
ATOM     13  C   UNL     1      -2.964   1.842   0.734  0.00  0.00    +0.000 A 
ATOM     14  C   UNL     1      -4.575   1.367  -0.686  0.00  0.00    +0.000 A 
ATOM     15  C   UNL     1      -3.914   4.056   1.422  0.00  0.00    +0.000 C 
ENDBRANCH   7  12
BRANCH   5  18
ATOM     16  F   UNL     1       1.595  -2.641   2.227  0.00  0.00    +0.000 F 
ATOM     17  F   UNL     1       0.208  -0.999   2.278  0.00  0.00    +0.000 F 
ATOM     18  C   UNL     1       1.022  -1.692   1.401  0.00  0.00    +0.000 C 
BRANCH  18  20
ATOM     19  N   UNL     1       4.946   1.645  -0.941  0.00  0.00    +0.000 NA
ATOM     20  C   UNL     1       2.049  -0.805   0.784  0.00  0.00    +0.000 A 
ATOM     21  C   UNL     1       1.755   0.530   0.523  0.00  0.00    +0.000 A 
ATOM     22  C   UNL     1       2.721   1.370  -0.058  0.00  0.00    +0.000 A 
ATOM     23  C   UNL     1       3.305  -1.306   0.466  0.00  0.00    +0.000 A 
ATOM     24  C   UNL     1       3.998   0.868  -0.383  0.00  0.00    +0.000 A 
ATOM     25  C   UNL     1       4.264  -0.471  -0.112  0.00  0.00    +0.000 A 
ATOM     26  C   UNL     1       2.452   2.718  -0.331  0.00  0.00    +0.000 A 
ATOM     27  C   UNL     1       3.427   3.521  -0.905  0.00  0.00    +0.000 A 
ATOM     28  C   UNL     1       4.647   2.941  -1.188  0.00  0.00    +0.000 A 
ENDBRANCH  18  20
ENDBRANCH   5  18
TORSDOF 3
