REMARK  Name = 46834118
REMARK  9 active torsions:
REMARK  status: ('A' for Active; 'I' for Inactive)
REMARK    1  A    between atoms: O_2  and  C_34
REMARK    2  A    between atoms: O_2  and  C_35
REMARK    3  A    between atoms: N_5  and  C_25
REMARK    4  A    between atoms: N_6  and  C_29
REMARK    5  A    between atoms: N_6  and  C_33
REMARK    6  A    between atoms: C_7  and  C_13
REMARK    7  A    between atoms: C_26  and  C_27
REMARK    8  A    between atoms: C_26  and  C_29
REMARK    9  A    between atoms: C_33  and  C_34
REMARK                            x       y       z     vdW  Elec       q    Type
REMARK                         _______ _______ _______ _____ _____    ______ ____
ROOT
ATOM      1  N   UNL     1      -0.199   1.799   0.581  0.00  0.00    +0.000 NA
ATOM      2  N   UNL     1      -1.585   3.768   0.623  0.00  0.00    +0.000 NA
ATOM      3  N   UNL     1       0.697   3.915   0.106  0.00  0.00    +0.000 N 
ATOM      4  C   UNL     1      -3.614  -0.699   1.026  0.00  0.00    +0.000 C 
ATOM      5  C   UNL     1      -3.701   0.763   1.521  0.00  0.00    +0.000 C 
ATOM      6  C   UNL     1      -2.200  -1.264   1.112  0.00  0.00    +0.000 A 
ATOM      7  C   UNL     1      -2.535   1.605   1.100  0.00  0.00    +0.000 A 
ATOM      8  C   UNL     1      -1.077  -0.407   1.045  0.00  0.00    +0.000 A 
ATOM      9  C   UNL     1      -1.274   1.046   0.911  0.00  0.00    +0.000 A 
ATOM     10  C   UNL     1      -2.022  -2.653   1.225  0.00  0.00    +0.000 A 
ATOM     11  C   UNL     1       0.204  -0.985   1.102  0.00  0.00    +0.000 A 
ATOM     12  C   UNL     1      -2.626   2.980   0.954  0.00  0.00    +0.000 A 
ATOM     13  C   UNL     1      -0.743  -3.200   1.282  0.00  0.00    +0.000 A 
ATOM     14  C   UNL     1       0.368  -2.367   1.221  0.00  0.00    +0.000 A 
ATOM     15  C   UNL     1      -0.419   3.122   0.454  0.00  0.00    +0.000 A 
ATOM     16  H   UNL     1       0.498   4.909   0.160  0.00  0.00    +0.000 HD
ENDROOT
BRANCH   4  18
ATOM     17  F   UNL     1      -5.940  -2.268   0.567  0.00  0.00    +0.000 F 
ATOM     18  C   UNL     1      -4.247  -0.879  -0.350  0.00  0.00    +0.000 A 
ATOM     19  C   UNL     1      -5.390  -1.665  -0.496  0.00  0.00    +0.000 A 
ATOM     20  C   UNL     1      -3.682  -0.255  -1.462  0.00  0.00    +0.000 A 
ATOM     21  C   UNL     1      -5.967  -1.828  -1.756  0.00  0.00    +0.000 A 
ATOM     22  C   UNL     1      -4.260  -0.418  -2.721  0.00  0.00    +0.000 A 
ATOM     23  C   UNL     1      -5.402  -1.204  -2.868  0.00  0.00    +0.000 A 
ENDBRANCH   4  18
BRANCH   3  24
ATOM     24  C   UNL     1       2.045   3.602  -0.147  0.00  0.00    +0.000 A 
ATOM     25  C   UNL     1       3.721   2.049  -0.932  0.00  0.00    +0.000 A 
ATOM     26  C   UNL     1       2.385   2.359  -0.681  0.00  0.00    +0.000 A 
ATOM     27  C   UNL     1       3.042   4.535   0.136  0.00  0.00    +0.000 A 
ATOM     28  C   UNL     1       4.718   2.983  -0.649  0.00  0.00    +0.000 A 
ATOM     29  C   UNL     1       4.379   4.226  -0.115  0.00  0.00    +0.000 A 
BRANCH  25  30
ATOM     30  C   UNL     1       4.085   0.720  -1.502  0.00  0.00    +0.000 C 
BRANCH  30  31
ATOM     31  C   UNL     1       4.349  -0.325  -0.409  0.00  0.00    +0.000 C 
BRANCH  31  32
ATOM     32  N   UNL     1       4.729  -1.613  -0.980  0.00  0.00    +0.000 NA
ATOM     33  H   UNL     1       3.988  -1.950  -1.593  0.00  0.00    +0.000 HD
BRANCH  32  34
ATOM     34  C   UNL     1       4.986  -2.589   0.069  0.00  0.00    +0.000 C 
BRANCH  34  35
ATOM     35  C   UNL     1       5.423  -3.917  -0.528  0.00  0.00    +0.000 C 
BRANCH  35  36
ATOM     36  O   UNL     1       5.679  -4.832   0.529  0.00  0.00    +0.000 OA
ATOM     37  C   UNL     1       6.073  -6.104   0.034  0.00  0.00    +0.000 C 
ENDBRANCH  35  36
ENDBRANCH  34  35
ENDBRANCH  32  34
ENDBRANCH  31  32
ENDBRANCH  30  31
ENDBRANCH  25  30
ENDBRANCH   3  24
TORSDOF 8
