REMARK  Name = 53262401
REMARK  6 active torsions:
REMARK  status: ('A' for Active; 'I' for Inactive)
REMARK    1  A    between atoms: N_1  and  C_7
REMARK    2  A    between atoms: N_2  and  C_16
REMARK    3  A    between atoms: N_6  and  C_24
REMARK    4  A    between atoms: C_7  and  C_11
REMARK    5  A    between atoms: C_18  and  C_20
REMARK    6  A    between atoms: C_22  and  C_26
REMARK                            x       y       z     vdW  Elec       q    Type
REMARK                         _______ _______ _______ _____ _____    ______ ____
ROOT
ATOM      1  N   UNL     1      -0.002   1.095   0.127  0.00  0.00    +0.000 N 
ATOM      2  N   UNL     1      -0.476   3.266   0.288  0.00  0.00    +0.000 NA
ATOM      3  N   UNL     1      -2.244   0.170   0.055  0.00  0.00    +0.000 NA
ATOM      4  C   UNL     1      -1.365   1.183   0.132  0.00  0.00    +0.000 A 
ATOM      5  C   UNL     1       0.486   2.371   0.222  0.00  0.00    +0.000 A 
ATOM      6  C   UNL     1      -1.641   2.539   0.232  0.00  0.00    +0.000 A 
ATOM      7  C   UNL     1      -2.985   2.932   0.260  0.00  0.00    +0.000 A 
ATOM      8  C   UNL     1      -3.528   0.600   0.086  0.00  0.00    +0.000 A 
ATOM      9  C   UNL     1      -3.946   1.924   0.183  0.00  0.00    +0.000 A 
ENDROOT
BRANCH   5  11
ATOM     10  N   UNL     1       3.821   3.796  -0.711  0.00  0.00    +0.000 NA
ATOM     11  C   UNL     1       1.900   2.684   0.246  0.00  0.00    +0.000 A 
ATOM     12  C   UNL     1       2.505   3.487  -0.707  0.00  0.00    +0.000 A 
ATOM     13  C   UNL     1       2.696   2.165   1.261  0.00  0.00    +0.000 A 
ATOM     14  C   UNL     1       4.055   2.460   1.290  0.00  0.00    +0.000 A 
ATOM     15  C   UNL     1       4.564   3.273   0.290  0.00  0.00    +0.000 A 
BRANCH  12  16
ATOM     16  N   UNL     1       1.706   4.024  -1.749  0.00  0.00    +0.000 N 
ATOM     17  H   UNL     1       0.911   3.488  -2.075  0.00  0.00    +0.000 HD
ATOM     18  H   UNL     1       2.183   4.611  -2.423  0.00  0.00    +0.000 HD
ENDBRANCH  12  16
ENDBRANCH   5  11
BRANCH   1  24
ATOM     19  C   UNL     1       2.223  -2.441  -0.127  0.00  0.00    +0.000 A 
ATOM     20  C   UNL     1       2.365  -1.456  -1.104  0.00  0.00    +0.000 A 
ATOM     21  C   UNL     1       1.339  -2.248   0.935  0.00  0.00    +0.000 A 
ATOM     22  C   UNL     1       1.624  -0.278  -1.020  0.00  0.00    +0.000 A 
ATOM     23  C   UNL     1       0.598  -1.069   1.020  0.00  0.00    +0.000 A 
ATOM     24  C   UNL     1       0.740  -0.084   0.042  0.00  0.00    +0.000 A 
BRANCH  19  25
ATOM     25  C   UNL     1       3.047  -3.751  -0.221  0.00  0.00    +0.000 C 
ATOM     26  C   UNL     1       4.438  -3.744  -0.888  0.00  0.00    +0.000 C 
ATOM     27  C   UNL     1       3.736  -4.324   1.035  0.00  0.00    +0.000 C 
ATOM     28  C   UNL     1       4.829  -4.870   0.092  0.00  0.00    +0.000 C 
BRANCH  25  29
ATOM     29  N   UNL     1       2.234  -4.805  -0.835  0.00  0.00    +0.000 NA
ATOM     30  H   UNL     1       1.923  -4.592  -1.782  0.00  0.00    +0.000 HD
ATOM     31  H   UNL     1       1.394  -5.044  -0.309  0.00  0.00    +0.000 HD
ENDBRANCH  25  29
ENDBRANCH  19  25
ENDBRANCH   1  24
BRANCH   8  32
ATOM     32  C   UNL     1      -4.508  -0.460   0.005  0.00  0.00    +0.000 A 
ATOM     33  C   UNL     1      -5.423  -0.486  -1.047  0.00  0.00    +0.000 A 
ATOM     34  C   UNL     1      -4.538  -1.458   0.980  0.00  0.00    +0.000 A 
ATOM     35  C   UNL     1      -6.369  -1.508  -1.125  0.00  0.00    +0.000 A 
ATOM     36  C   UNL     1      -5.483  -2.481   0.902  0.00  0.00    +0.000 A 
ATOM     37  C   UNL     1      -6.398  -2.506  -0.150  0.00  0.00    +0.000 A 
ENDBRANCH   8  32
TORSDOF 6
