REMARK  Name = 118009787
REMARK  11 active torsions:
REMARK  status: ('A' for Active; 'I' for Inactive)
REMARK    1  A    between atoms: O_1  and  C_22
REMARK    2  A    between atoms: O_1  and  C_26
REMARK    3  A    between atoms: O_2  and  C_21
REMARK    4  A    between atoms: O_2  and  C_31
REMARK    5  A    between atoms: O_3  and  C_34
REMARK    6  A    between atoms: O_3  and  C_35
REMARK    7  A    between atoms: N_4  and  C_10
REMARK    8  A    between atoms: N_8  and  C_28
REMARK    9  A    between atoms: C_10  and  C_13
REMARK   10  A    between atoms: C_16  and  C_20
REMARK   11  A    between atoms: C_26  and  C_27
REMARK                            x       y       z     vdW  Elec       q    Type
REMARK                         _______ _______ _______ _____ _____    ______ ____
ROOT
ATOM      1  C   UNL     1      -1.296   2.969  -0.805  0.00  0.00    +0.000 C 
ENDROOT
BRANCH   1   2
ATOM      2  N   UNL     1      -2.150   2.321   0.165  0.00  0.00    +0.000 N 
ATOM      3  N   UNL     1      -3.068   1.780   2.122  0.00  0.00    +0.000 NA
ATOM      4  N   UNL     1      -3.408   0.867  -1.316  0.00  0.00    +0.000 NA
ATOM      5  N   UNL     1      -1.324   3.435   2.064  0.00  0.00    +0.000 N 
ATOM      6  C   UNL     1      -3.094   1.373  -0.112  0.00  0.00    +0.000 A 
ATOM      7  C   UNL     1      -3.654   1.049   1.116  0.00  0.00    +0.000 A 
ATOM      8  C   UNL     1      -2.172   2.532   1.517  0.00  0.00    +0.000 A 
ATOM      9  C   UNL     1      -4.669   0.084   1.137  0.00  0.00    +0.000 A 
ATOM     10  C   UNL     1      -5.040  -0.479  -0.084  0.00  0.00    +0.000 A 
ATOM     11  C   UNL     1      -4.393  -0.061  -1.243  0.00  0.00    +0.000 A 
ATOM     12  H   UNL     1      -1.320   3.609   3.064  0.00  0.00    +0.000 HD
ATOM     13  H   UNL     1      -0.659   3.981   1.528  0.00  0.00    +0.000 HD
BRANCH  10  16
ATOM     14  N   UNL     1      -7.869  -2.617   0.341  0.00  0.00    +0.000 N 
ATOM     15  N   UNL     1      -7.372  -3.256  -0.732  0.00  0.00    +0.000 NA
ATOM     16  C   UNL     1      -6.071  -1.474  -0.141  0.00  0.00    +0.000 A 
ATOM     17  C   UNL     1      -7.127  -1.542   0.734  0.00  0.00    +0.000 A 
ATOM     18  C   UNL     1      -6.274  -2.553  -1.022  0.00  0.00    +0.000 A 
ATOM     19  C   UNL     1      -9.084  -3.092   0.959  0.00  0.00    +0.000 C 
ENDBRANCH  10  16
ENDBRANCH   1   2
BRANCH   1  20
ATOM     20  C   UNL     1       0.108   2.419  -0.828  0.00  0.00    +0.000 A 
ATOM     21  C   UNL     1       0.321   1.060  -1.062  0.00  0.00    +0.000 A 
ATOM     22  C   UNL     1       1.194   3.268  -0.616  0.00  0.00    +0.000 A 
ATOM     23  C   UNL     1       1.619   0.551  -1.083  0.00  0.00    +0.000 A 
ATOM     24  C   UNL     1       2.705   1.400  -0.870  0.00  0.00    +0.000 A 
ATOM     25  C   UNL     1       2.493   2.759  -0.636  0.00  0.00    +0.000 A 
BRANCH  23  26
ATOM     26  O   UNL     1       1.813  -0.778  -1.312  0.00  0.00    +0.000 OA
ATOM     27  C   UNL     1       0.650  -1.576  -1.520  0.00  0.00    +0.000 C 
ENDBRANCH  23  26
BRANCH  24  28
ATOM     28  O   UNL     1       3.977   0.914  -0.887  0.00  0.00    +0.000 OA
BRANCH  28  29
ATOM     29  C   UNL     1       4.746   1.070   0.305  0.00  0.00    +0.000 C 
BRANCH  29  30
ATOM     30  C   UNL     1       5.746  -0.045   0.392  0.00  0.00    +0.000 A 
ATOM     31  C   UNL     1       5.331  -1.328   0.750  0.00  0.00    +0.000 A 
ATOM     32  C   UNL     1       7.091   0.201   0.116  0.00  0.00    +0.000 A 
ATOM     33  C   UNL     1       6.261  -2.365   0.831  0.00  0.00    +0.000 A 
ATOM     34  C   UNL     1       8.021  -0.835   0.197  0.00  0.00    +0.000 A 
ATOM     35  C   UNL     1       7.606  -2.118   0.554  0.00  0.00    +0.000 A 
BRANCH  35  36
ATOM     36  O   UNL     1       8.513  -3.130   0.633  0.00  0.00    +0.000 OA
ATOM     37  C   UNL     1       9.871  -2.808   0.337  0.00  0.00    +0.000 C 
ENDBRANCH  35  36
ENDBRANCH  29  30
ENDBRANCH  28  29
ENDBRANCH  24  28
ENDBRANCH   1  20
TORSDOF 8
