REMARK  Name = 17150
REMARK  6 active torsions:
REMARK  status: ('A' for Active; 'I' for Inactive)
REMARK    1  A    between atoms: O_1  and  C_9
REMARK    2  A    between atoms: O_2  and  C_12
REMARK    3  A    between atoms: C_5  and  C_16
REMARK    4  A    between atoms: C_9  and  C_19
REMARK    5  A    between atoms: C_13  and  C_20
REMARK    6  A    between atoms: C_23  and  C_25
REMARK                            x       y       z     vdW  Elec       q    Type
REMARK                         _______ _______ _______ _____ _____    ______ ____
ROOT
ATOM      1  O   UNL     1       5.078  -0.760   1.229  0.00  0.00    +0.000 OA
ATOM      2  C   UNL     1      -2.955   0.507  -0.209  0.00  0.00    +0.000 C 
ATOM      3  C   UNL     1      -2.285  -0.744   0.393  0.00  0.00    +0.000 C 
ATOM      4  C   UNL     1      -0.953  -1.091  -0.284  0.00  0.00    +0.000 C 
ATOM      5  C   UNL     1       0.051   0.110  -0.133  0.00  0.00    +0.000 C 
ATOM      6  C   UNL     1      -4.308   0.513   0.569  0.00  0.00    +0.000 C 
ATOM      7  C   UNL     1      -2.011   1.688   0.036  0.00  0.00    +0.000 C 
ATOM      8  C   UNL     1      -3.399  -1.787   0.375  0.00  0.00    +0.000 C 
ATOM      9  C   UNL     1      -0.606   1.462  -0.562  0.00  0.00    +0.000 C 
ATOM     10  C   UNL     1       1.447  -0.228  -0.814  0.00  0.00    +0.000 C 
ATOM     11  C   UNL     1      -4.690  -0.988   0.624  0.00  0.00    +0.000 C 
ATOM     12  C   UNL     1      -0.360  -2.384   0.297  0.00  0.00    +0.000 C 
ATOM     13  C   UNL     1      -3.232   0.396  -1.735  0.00  0.00    +0.000 C 
ATOM     14  C   UNL     1       0.979  -2.728  -0.345  0.00  0.00    +0.000 C 
ATOM     15  C   UNL     1       1.927  -1.563  -0.230  0.00  0.00    +0.000 C 
ATOM     16  C   UNL     1      -4.255   1.110   1.981  0.00  0.00    +0.000 C 
ATOM     17  C   UNL     1       1.329  -0.358  -2.351  0.00  0.00    +0.000 C 
ATOM     18  C   UNL     1       2.481   0.868  -0.583  0.00  0.00    +0.000 C 
ATOM     19  C   UNL     1       3.092  -1.719   0.418  0.00  0.00    +0.000 C 
ATOM     20  C   UNL     1       3.645   0.721   0.063  0.00  0.00    +0.000 C 
ATOM     21  C   UNL     1       4.026  -0.594   0.621  0.00  0.00    +0.000 C 
ENDROOT
BRANCH   6  22
ATOM     22  O   UNL     1      -5.305   1.241  -0.145  0.00  0.00    +0.000 OA
ATOM     23  H   UNL     1      -5.006   2.164  -0.214  0.00  0.00    +0.000 HD
ENDBRANCH   6  22
BRANCH   9  24
ATOM     24  O   UNL     1       0.193   2.559  -0.115  0.00  0.00    +0.000 OA
ATOM     25  H   UNL     1      -0.210   3.376  -0.455  0.00  0.00    +0.000 HD
ENDBRANCH   9  24
BRANCH  20  27
ATOM     26  O   UNL     1       5.596   1.871   0.734  0.00  0.00    +0.000 OA
ATOM     27  C   UNL     1       4.513   1.899   0.164  0.00  0.00    +0.000 C 
ENDBRANCH  20  27
TORSDOF 3
