REMARK  Name = 261000
REMARK  3 active torsions:
REMARK  status: ('A' for Active; 'I' for Inactive)
REMARK    1  A    between atoms: O_1  and  C_5
REMARK    2  A    between atoms: C_3  and  C_12
REMARK    3  A    between atoms: C_5  and  C_13
REMARK                            x       y       z     vdW  Elec       q    Type
REMARK                         _______ _______ _______ _____ _____    ______ ____
ROOT
ATOM      1  O   UNL     1      -5.822  -0.255   0.749  0.00  0.00    +0.000 OA
ATOM      2  C   UNL     1       2.503  -0.383  -0.405  0.00  0.00    +0.000 C 
ATOM      3  C   UNL     1       1.630   0.698   0.280  0.00  0.00    +0.000 C 
ATOM      4  C   UNL     1       3.737  -0.373   0.545  0.00  0.00    +0.000 C 
ATOM      5  C   UNL     1       0.320   0.931  -0.476  0.00  0.00    +0.000 C 
ATOM      6  C   UNL     1       2.603   1.845   0.509  0.00  0.00    +0.000 C 
ATOM      7  C   UNL     1       3.929   1.139   0.857  0.00  0.00    +0.000 C 
ATOM      8  C   UNL     1      -0.483  -0.387  -0.486  0.00  0.00    +0.000 C 
ATOM      9  C   UNL     1       1.675  -1.637  -0.523  0.00  0.00    +0.000 C 
ATOM     10  C   UNL     1      -0.477   2.103   0.108  0.00  0.00    +0.000 C 
ATOM     11  C   UNL     1       2.939  -0.025  -1.854  0.00  0.00    +0.000 C 
ATOM     12  C   UNL     1       3.565  -1.188   1.834  0.00  0.00    +0.000 C 
ATOM     13  C   UNL     1       0.330  -1.611  -0.575  0.00  0.00    +0.000 C 
ATOM     14  C   UNL     1      -1.838  -0.390  -0.391  0.00  0.00    +0.000 C 
ATOM     15  C   UNL     1      -1.854   2.152  -0.541  0.00  0.00    +0.000 C 
ATOM     16  C   UNL     1      -2.597   0.868  -0.272  0.00  0.00    +0.000 C 
ATOM     17  C   UNL     1      -2.712  -1.631  -0.422  0.00  0.00    +0.000 C 
ATOM     18  C   UNL     1      -3.891   0.916   0.088  0.00  0.00    +0.000 C 
ATOM     19  C   UNL     1      -3.832  -1.585   0.609  0.00  0.00    +0.000 C 
ATOM     20  C   UNL     1      -4.625  -0.311   0.477  0.00  0.00    +0.000 C 
ENDROOT
BRANCH   4  21
ATOM     21  O   UNL     1       4.898  -0.876  -0.113  0.00  0.00    +0.000 OA
ATOM     22  H   UNL     1       4.729  -1.806  -0.344  0.00  0.00    +0.000 HD
ENDBRANCH   4  21
TORSDOF 1
