REMARK  Name = 5318517
REMARK  8 active torsions:
REMARK  status: ('A' for Active; 'I' for Inactive)
REMARK    1  A    between atoms: O_1  and  C_11
REMARK    2  A    between atoms: O_2  and  C_17
REMARK    3  A    between atoms: O_4  and  C_23
REMARK    4  A    between atoms: C_6  and  C_14
REMARK    5  A    between atoms: C_8  and  C_17
REMARK    6  A    between atoms: C_8  and  C_18
REMARK    7  A    between atoms: C_9  and  C_19
REMARK    8  A    between atoms: C_19  and  C_21
REMARK                            x       y       z     vdW  Elec       q    Type
REMARK                         _______ _______ _______ _____ _____    ______ ____
ROOT
ATOM      1  C   UNL     1      -1.235   0.309  -0.115  0.00  0.00    +0.000 C 
ATOM      2  C   UNL     1      -2.353  -0.718   0.334  0.00  0.00    +0.000 C 
ATOM      3  C   UNL     1      -3.846  -0.222   0.246  0.00  0.00    +0.000 C 
ATOM      4  C   UNL     1       0.160  -0.284   0.357  0.00  0.00    +0.000 C 
ATOM      5  C   UNL     1      -1.496   1.668   0.584  0.00  0.00    +0.000 C 
ATOM      6  C   UNL     1      -3.949   1.177   0.922  0.00  0.00    +0.000 C 
ATOM      7  C   UNL     1      -2.105  -2.116  -0.280  0.00  0.00    +0.000 C 
ATOM      8  C   UNL     1      -2.921   2.183   0.416  0.00  0.00    +0.000 C 
ATOM      9  C   UNL     1      -1.192   0.545  -1.647  0.00  0.00    +0.000 C 
ATOM     10  C   UNL     1      -0.722  -2.658   0.088  0.00  0.00    +0.000 C 
ATOM     11  C   UNL     1       0.369  -1.673  -0.245  0.00  0.00    +0.000 C 
ATOM     12  C   UNL     1      -4.758  -1.187   1.056  0.00  0.00    +0.000 C 
ATOM     13  C   UNL     1       1.404  -2.043  -1.018  0.00  0.00    +0.000 C 
ENDROOT
BRANCH   6  14
ATOM     14  O   UNL     1      -5.254   1.736   0.780  0.00  0.00    +0.000 OA
ATOM     15  H   UNL     1      -5.269   2.578   1.266  0.00  0.00    +0.000 HD
ENDBRANCH   6  14
BRANCH   3  16
ATOM     16  C   UNL     1      -4.424  -0.206  -1.185  0.00  0.00    +0.000 C 
BRANCH  16  17
ATOM     17  O   UNL     1      -5.758   0.245  -1.109  0.00  0.00    +0.000 OA
ATOM     18  H   UNL     1      -6.118   0.239  -2.013  0.00  0.00    +0.000 HD
ENDBRANCH  16  17
ENDBRANCH   3  16
BRANCH   4  19
ATOM     19  C   UNL     1       1.353   0.670   0.176  0.00  0.00    +0.000 C 
BRANCH  19  22
ATOM     20  O   UNL     1       6.099   0.383   0.340  0.00  0.00    +0.000 OA
ATOM     21  O   UNL     1       5.086  -1.211   1.657  0.00  0.00    +0.000 OA
ATOM     22  C   UNL     1       2.595   0.081   0.758  0.00  0.00    +0.000 C 
ATOM     23  C   UNL     1       3.820   0.318   0.284  0.00  0.00    +0.000 C 
ATOM     24  C   UNL     1       4.222   1.231  -0.810  0.00  0.00    +0.000 C 
ATOM     25  C   UNL     1       5.032  -0.286   0.869  0.00  0.00    +0.000 C 
ATOM     26  C   UNL     1       5.650   1.528  -0.409  0.00  0.00    +0.000 C 
BRANCH  24  27
ATOM     27  O   UNL     1       4.222   0.529  -2.046  0.00  0.00    +0.000 OA
ATOM     28  H   UNL     1       4.569   1.133  -2.725  0.00  0.00    +0.000 HD
ENDBRANCH  24  27
ENDBRANCH  19  22
ENDBRANCH   4  19
TORSDOF 6
