REMARK  Name = 6231
REMARK  3 active torsions:
REMARK  status: ('A' for Active; 'I' for Inactive)
REMARK    1  A    between atoms: O_1  and  C_7
REMARK    2  A    between atoms: C_3  and  C_13
REMARK    3  A    between atoms: C_7  and  C_18
REMARK                            x       y       z     vdW  Elec       q    Type
REMARK                         _______ _______ _______ _____ _____    ______ ____
ROOT
ATOM      1  O   UNL     1      -6.001  -0.427  -0.788  0.00  0.00    +0.000 OA
ATOM      2  C   UNL     1       2.229  -0.346  -0.631  0.00  0.00    +0.000 C 
ATOM      3  C   UNL     1       1.580   0.786   0.202  0.00  0.00    +0.000 C 
ATOM      4  C   UNL     1       0.079   0.912  -0.060  0.00  0.00    +0.000 C 
ATOM      5  C   UNL     1      -0.611  -0.420   0.360  0.00  0.00    +0.000 C 
ATOM      6  C   UNL     1       3.725  -0.160  -0.236  0.00  0.00    +0.000 C 
ATOM      7  C   UNL     1       1.556  -1.678  -0.248  0.00  0.00    +0.000 C 
ATOM      8  C   UNL     1       2.482   1.987  -0.065  0.00  0.00    +0.000 C 
ATOM      9  C   UNL     1       0.021  -1.617  -0.398  0.00  0.00    +0.000 C 
ATOM     10  C   UNL     1       3.893   1.384  -0.231  0.00  0.00    +0.000 C 
ATOM     11  C   UNL     1      -0.570   2.074   0.689  0.00  0.00    +0.000 C 
ATOM     12  C   UNL     1       2.079  -0.157  -2.171  0.00  0.00    +0.000 C 
ATOM     13  C   UNL     1      -2.132  -0.327   0.254  0.00  0.00    +0.000 C 
ATOM     14  C   UNL     1      -2.042   2.187   0.292  0.00  0.00    +0.000 C 
ATOM     15  C   UNL     1      -2.771   0.864   0.197  0.00  0.00    +0.000 C 
ATOM     16  C   UNL     1      -2.898  -1.632   0.263  0.00  0.00    +0.000 C 
ATOM     17  C   UNL     1      -4.263   1.005   0.036  0.00  0.00    +0.000 C 
ATOM     18  C   UNL     1      -4.375  -1.491   0.606  0.00  0.00    +0.000 C 
ATOM     19  C   UNL     1      -4.957  -0.326  -0.145  0.00  0.00    +0.000 C 
ENDROOT
BRANCH   6  20
ATOM     20  O   UNL     1       4.596  -0.750  -1.192  0.00  0.00    +0.000 OA
ATOM     21  H   UNL     1       4.387  -1.699  -1.242  0.00  0.00    +0.000 HD
ENDBRANCH   6  20
BRANCH   6  22
ATOM     22  C   UNL     1       4.056  -0.711   1.093  0.00  0.00    +0.000 C 
ATOM     23  C   UNL     1       4.325  -1.160   2.173  0.00  0.00    +0.000 C 
ENDBRANCH   6  22
TORSDOF 2
