REMARK  Name = 10041070
REMARK  4 active torsions:
REMARK  status: ('A' for Active; 'I' for Inactive)
REMARK    1  A    between atoms: O_1  and  C_5
REMARK    2  A    between atoms: C_3  and  C_11
REMARK    3  A    between atoms: C_5  and  C_13
REMARK    4  A    between atoms: C_13  and  C_19
REMARK                            x       y       z     vdW  Elec       q    Type
REMARK                         _______ _______ _______ _____ _____    ______ ____
ROOT
ATOM      1  O   UNL     1      -6.105  -1.064   0.841  0.00  0.00    +0.000 OA
ATOM      2  C   UNL     1       1.987   0.350  -0.938  0.00  0.00    +0.000 C 
ATOM      3  C   UNL     1       1.178   0.764   0.316  0.00  0.00    +0.000 C 
ATOM      4  C   UNL     1       3.337  -0.044  -0.269  0.00  0.00    +0.000 C 
ATOM      5  C   UNL     1      -0.230   1.241  -0.050  0.00  0.00    +0.000 C 
ATOM      6  C   UNL     1       2.132   1.682   1.065  0.00  0.00    +0.000 C 
ATOM      7  C   UNL     1       3.517   1.046   0.828  0.00  0.00    +0.000 C 
ATOM      8  C   UNL     1       1.195  -0.702  -1.671  0.00  0.00    +0.000 C 
ATOM      9  C   UNL     1      -0.980   0.078  -0.733  0.00  0.00    +0.000 C 
ATOM     10  C   UNL     1       2.211   1.500  -1.960  0.00  0.00    +0.000 C 
ATOM     11  C   UNL     1      -0.980   1.794   1.166  0.00  0.00    +0.000 C 
ATOM     12  C   UNL     1      -0.145  -0.794  -1.576  0.00  0.00    +0.000 C 
ATOM     13  C   UNL     1      -2.309  -0.120  -0.533  0.00  0.00    +0.000 C 
ATOM     14  C   UNL     1      -2.433   2.053   0.789  0.00  0.00    +0.000 C 
ATOM     15  C   UNL     1      -3.089   0.768   0.348  0.00  0.00    +0.000 C 
ATOM     16  C   UNL     1      -3.135  -1.215  -1.183  0.00  0.00    +0.000 C 
ATOM     17  C   UNL     1      -4.323   0.471   0.789  0.00  0.00    +0.000 C 
ATOM     18  C   UNL     1      -4.107  -1.871  -0.211  0.00  0.00    +0.000 C 
ATOM     19  C   UNL     1      -4.955  -0.833   0.477  0.00  0.00    +0.000 C 
ENDROOT
BRANCH   4  20
ATOM     20  O   UNL     1       4.415   0.032  -1.199  0.00  0.00    +0.000 OA
ATOM     21  H   UNL     1       5.241   0.183  -0.709  0.00  0.00    +0.000 HD
ENDBRANCH   4  20
BRANCH   4  22
ATOM     22  C   UNL     1       3.369  -1.453   0.340  0.00  0.00    +0.000 C 
BRANCH  22  23
ATOM     23  C   UNL     1       4.670  -1.707   1.029  0.00  0.00    +0.000 C 
ATOM     24  C   UNL     1       4.779  -1.975   2.335  0.00  0.00    +0.000 C 
ENDBRANCH  22  23
ENDBRANCH   4  22
TORSDOF 3
