REMARK  Name = 15376
REMARK  6 active torsions:
REMARK  status: ('A' for Active; 'I' for Inactive)
REMARK    1  A    between atoms: O_1  and  C_11
REMARK    2  A    between atoms: O_2  and  C_21
REMARK    3  A    between atoms: O_2  and  C_26
REMARK    4  A    between atoms: C_6  and  C_12
REMARK    5  A    between atoms: C_11  and  C_21
REMARK    6  A    between atoms: C_12  and  C_20
REMARK                            x       y       z     vdW  Elec       q    Type
REMARK                         _______ _______ _______ _____ _____    ______ ____
ROOT
ATOM      1  N   UNL     1      -2.372   1.822   0.662  0.00  0.00    +0.000 NA
ATOM      2  N   UNL     1       0.638  -0.218  -0.090  0.00  0.00    +0.000 N 
ATOM      3  C   UNL     1      -2.254  -0.642   0.006  0.00  0.00    +0.000 C 
ATOM      4  C   UNL     1      -1.622   0.543   0.779  0.00  0.00    +0.000 C 
ATOM      5  C   UNL     1      -1.270  -1.851   0.051  0.00  0.00    +0.000 C 
ATOM      6  C   UNL     1      -0.190   0.745   0.408  0.00  0.00    +0.000 A 
ATOM      7  C   UNL     1      -2.586  -0.224  -1.445  0.00  0.00    +0.000 C 
ATOM      8  C   UNL     1       0.172  -1.561  -0.434  0.00  0.00    +0.000 C 
ATOM      9  C   UNL     1      -3.384   1.078  -1.491  0.00  0.00    +0.000 C 
ATOM     10  C   UNL     1      -2.673   2.195  -0.728  0.00  0.00    +0.000 C 
ATOM     11  C   UNL     1       0.487   1.937   0.488  0.00  0.00    +0.000 A 
ATOM     12  C   UNL     1      -1.654   2.912   1.375  0.00  0.00    +0.000 C 
ATOM     13  C   UNL     1      -0.206   3.193   0.889  0.00  0.00    +0.000 C 
ATOM     14  C   UNL     1       1.896   0.330  -0.291  0.00  0.00    +0.000 A 
ATOM     15  C   UNL     1       1.820   1.687   0.068  0.00  0.00    +0.000 A 
ATOM     16  C   UNL     1       3.091  -0.232  -0.773  0.00  0.00    +0.000 A 
ATOM     17  C   UNL     1       2.967   2.497  -0.062  0.00  0.00    +0.000 A 
ATOM     18  C   UNL     1       4.215   0.591  -0.884  0.00  0.00    +0.000 A 
ATOM     19  C   UNL     1       4.157   1.936  -0.535  0.00  0.00    +0.000 A 
ENDROOT
BRANCH   8  20
ATOM     20  O   UNL     1       0.207  -1.704  -1.849  0.00  0.00    +0.000 OA
ATOM     21  H   UNL     1      -0.148  -2.578  -2.082  0.00  0.00    +0.000 HD
ENDBRANCH   8  20
BRANCH   8  23
ATOM     22  O   UNL     1       1.305  -3.689  -0.407  0.00  0.00    +0.000 OA
ATOM     23  C   UNL     1       1.059  -2.625   0.146  0.00  0.00    +0.000 C 
BRANCH  23  24
ATOM     24  O   UNL     1       1.529  -2.216   1.359  0.00  0.00    +0.000 OA
ATOM     25  C   UNL     1       2.392  -3.141   2.028  0.00  0.00    +0.000 C 
ENDBRANCH  23  24
ENDBRANCH   8  23
BRANCH   3  26
ATOM     26  C   UNL     1      -3.558  -1.086   0.715  0.00  0.00    +0.000 C 
ATOM     27  C   UNL     1      -4.165  -2.275   0.014  0.00  0.00    +0.000 C 
ENDBRANCH   3  26
TORSDOF 4
