REMARK  Name = 3037705
REMARK  4 active torsions:
REMARK  status: ('A' for Active; 'I' for Inactive)
REMARK    1  A    between atoms: O_1  and  C_13
REMARK    2  A    between atoms: C_6  and  C_16
REMARK    3  A    between atoms: C_7  and  C_18
REMARK    4  A    between atoms: C_17  and  C_22
REMARK                            x       y       z     vdW  Elec       q    Type
REMARK                         _______ _______ _______ _____ _____    ______ ____
ROOT
ATOM      1  O   UNL     1      -5.709  -0.426  -0.358  0.00  0.00    +0.000 OA
ATOM      2  C   UNL     1       0.764  -0.850   0.184  0.00  0.00    +0.000 C 
ATOM      3  C   UNL     1       2.164  -0.715  -0.431  0.00  0.00    +0.000 C 
ATOM      4  C   UNL     1      -0.092   0.419  -0.199  0.00  0.00    +0.000 C 
ATOM      5  C   UNL     1       2.934   0.502   0.109  0.00  0.00    +0.000 C 
ATOM      6  C   UNL     1      -1.608   0.312   0.303  0.00  0.00    +0.000 C 
ATOM      7  C   UNL     1       0.694   1.689   0.260  0.00  0.00    +0.000 C 
ATOM      8  C   UNL     1       2.143   1.756  -0.264  0.00  0.00    +0.000 C 
ATOM      9  C   UNL     1      -2.152  -1.101  -0.138  0.00  0.00    +0.000 C 
ATOM     10  C   UNL     1       0.108  -2.156  -0.257  0.00  0.00    +0.000 C 
ATOM     11  C   UNL     1       3.168  -1.857  -0.289  0.00  0.00    +0.000 C 
ATOM     12  C   UNL     1       4.260   0.320  -0.655  0.00  0.00    +0.000 C 
ATOM     13  C   UNL     1      -1.290  -2.278   0.315  0.00  0.00    +0.000 C 
ATOM     14  C   UNL     1       4.528  -1.195  -0.579  0.00  0.00    +0.000 C 
ATOM     15  C   UNL     1       3.191   0.485   1.638  0.00  0.00    +0.000 C 
ATOM     16  C   UNL     1      -2.606   1.346  -0.298  0.00  0.00    +0.000 C 
ATOM     17  C   UNL     1      -1.664   0.488   1.840  0.00  0.00    +0.000 C 
ATOM     18  C   UNL     1      -3.602  -1.349   0.285  0.00  0.00    +0.000 C 
ATOM     19  C   UNL     1      -3.901   1.060  -0.536  0.00  0.00    +0.000 C 
ATOM     20  C   UNL     1      -4.498  -0.258  -0.227  0.00  0.00    +0.000 C 
ATOM     21  C   UNL     1      -2.172   2.754  -0.594  0.00  0.00    +0.000 C 
ENDROOT
BRANCH  12  22
ATOM     22  O   UNL     1       5.340   1.052  -0.108  0.00  0.00    +0.000 OA
ATOM     23  H   UNL     1       5.098   1.993  -0.136  0.00  0.00    +0.000 HD
ENDBRANCH  12  22
TORSDOF 1
