REMARK  Name = 71655
REMARK  1 active torsions:
REMARK  status: ('A' for Active; 'I' for Inactive)
REMARK    1  A    between atoms: N_3  and  C_11
REMARK                            x       y       z     vdW  Elec       q    Type
REMARK                         _______ _______ _______ _____ _____    ______ ____
ROOT
ATOM      1  O   UNL     1       3.037  -0.896  -0.151  0.00  0.00    +0.000 OA
ATOM      2  N   UNL     1       0.641   0.460   0.381  0.00  0.00    +0.000 N 
ATOM      3  N   UNL     1      -0.829   2.218  -0.075  0.00  0.00    +0.000 NA
ATOM      4  C   UNL     1       1.835   1.206  -0.015  0.00  0.00    +0.000 C 
ATOM      5  C   UNL     1       0.909  -0.832   1.011  0.00  0.00    +0.000 C 
ATOM      6  C   UNL     1       2.734   0.309  -0.858  0.00  0.00    +0.000 C 
ATOM      7  C   UNL     1       1.848  -1.641   0.123  0.00  0.00    +0.000 C 
ATOM      8  C   UNL     1      -0.610   1.002   0.329  0.00  0.00    +0.000 C 
ATOM      9  H   UNL     1      -1.835   2.408  -0.016  0.00  0.00    +0.000 HD
ENDROOT
BRANCH   8  10
ATOM     10  N   UNL     1      -1.712   0.284   0.736  0.00  0.00    +0.000 NA
ATOM     11  N   UNL     1      -3.453  -1.165   0.183  0.00  0.00    +0.000 N 
ATOM     12  N   UNL     1      -2.053  -0.525  -1.503  0.00  0.00    +0.000 N 
ATOM     13  C   UNL     1      -2.350  -0.421  -0.163  0.00  0.00    +0.000 C 
ATOM     14  H   UNL     1      -3.792  -1.185   1.138  0.00  0.00    +0.000 HD
ATOM     15  H   UNL     1      -3.957  -1.716  -0.503  0.00  0.00    +0.000 HD
ATOM     16  H   UNL     1      -2.613  -1.102  -2.122  0.00  0.00    +0.000 HD
ATOM     17  H   UNL     1      -1.266  -0.036  -1.917  0.00  0.00    +0.000 HD
ENDBRANCH   8  10
TORSDOF 1
