REMARK  Name = 447721
REMARK  8 active torsions:
REMARK  status: ('A' for Active; 'I' for Inactive)
REMARK    1  A    between atoms: N_5  and  C_18
REMARK    2  A    between atoms: N_8  and  C_27
REMARK    3  A    between atoms: C_10  and  C_15
REMARK    4  A    between atoms: C_16  and  C_19
REMARK    5  A    between atoms: C_17  and  C_20
REMARK    6  A    between atoms: C_24  and  C_30
REMARK    7  A    between atoms: C_27  and  C_31
REMARK    8  A    between atoms: C_27  and  C_32
REMARK                            x       y       z     vdW  Elec       q    Type
REMARK                         _______ _______ _______ _____ _____    ______ ____
ROOT
ATOM      1  N   UNL     1      -2.181   0.945   1.087  0.00  0.00    +0.000 N 
ATOM      2  N   UNL     1      -2.454  -0.594  -0.490  0.00  0.00    +0.000 NA
ATOM      3  C   UNL     1      -3.030   0.368   0.189  0.00  0.00    +0.000 A 
ATOM      4  C   UNL     1      -0.978   0.307   0.975  0.00  0.00    +0.000 A 
ATOM      5  C   UNL     1      -1.172  -0.640  -0.004  0.00  0.00    +0.000 A 
ATOM      6  C   UNL     1      -2.499   2.031   1.988  0.00  0.00    +0.000 C 
ENDROOT
BRANCH   4  10
ATOM      7  N   UNL     1       0.984   1.574   1.224  0.00  0.00    +0.000 NA
ATOM      8  N   UNL     1       2.934   2.863   1.427  0.00  0.00    +0.000 N 
ATOM      9  N   UNL     1       2.413   1.362   3.154  0.00  0.00    +0.000 NA
ATOM     10  C   UNL     1       0.183   0.638   1.768  0.00  0.00    +0.000 A 
ATOM     11  C   UNL     1       0.420   0.024   2.978  0.00  0.00    +0.000 A 
ATOM     12  C   UNL     1       2.068   1.885   1.962  0.00  0.00    +0.000 A 
ATOM     13  C   UNL     1       1.563   0.431   3.634  0.00  0.00    +0.000 A 
ATOM     14  H   UNL     1       3.768   3.072   1.965  0.00  0.00    +0.000 HD
BRANCH   8  15
ATOM     15  C   UNL     1       2.699   3.505   0.172  0.00  0.00    +0.000 C 
ATOM     16  C   UNL     1       3.418   4.852   0.146  0.00  0.00    +0.000 C 
BRANCH  15  17
ATOM     17  C   UNL     1       3.108   2.594  -0.966  0.00  0.00    +0.000 A 
ATOM     18  C   UNL     1       2.408   2.646  -2.159  0.00  0.00    +0.000 A 
ATOM     19  C   UNL     1       4.174   1.730  -0.788  0.00  0.00    +0.000 A 
ATOM     20  C   UNL     1       2.786   1.807  -3.207  0.00  0.00    +0.000 A 
ATOM     21  C   UNL     1       4.552   0.890  -1.837  0.00  0.00    +0.000 A 
ATOM     22  C   UNL     1       3.858   0.929  -3.046  0.00  0.00    +0.000 A 
ENDBRANCH  15  17
ENDBRANCH   8  15
ENDBRANCH   4  10
BRANCH   3  24
ATOM     23  N   UNL     1      -6.900   1.253  -1.543  0.00  0.00    +0.000 NA
ATOM     24  C   UNL     1      -4.470   0.828   0.031  0.00  0.00    +0.000 C 
ATOM     25  C   UNL     1      -4.606   1.982  -0.974  0.00  0.00    +0.000 C 
ATOM     26  C   UNL     1      -5.409  -0.326  -0.358  0.00  0.00    +0.000 C 
ATOM     27  C   UNL     1      -6.069   2.390  -1.147  0.00  0.00    +0.000 C 
ATOM     28  C   UNL     1      -6.840   0.175  -0.555  0.00  0.00    +0.000 C 
ATOM     29  H   UNL     1      -6.567   0.897  -2.440  0.00  0.00    +0.000 HD
ENDBRANCH   3  24
BRANCH   5  30
ATOM     30  C   UNL     1      -0.186  -1.564  -0.478  0.00  0.00    +0.000 A 
ATOM     31  C   UNL     1      -0.048  -2.815   0.130  0.00  0.00    +0.000 A 
ATOM     32  C   UNL     1       0.642  -1.220  -1.549  0.00  0.00    +0.000 A 
ATOM     33  C   UNL     1       0.913  -3.715  -0.331  0.00  0.00    +0.000 A 
ATOM     34  C   UNL     1       1.603  -2.120  -2.009  0.00  0.00    +0.000 A 
ATOM     35  C   UNL     1       1.738  -3.367  -1.401  0.00  0.00    +0.000 A 
BRANCH  33  39
ATOM     36  F   UNL     1       2.036  -5.825  -0.236  0.00  0.00    +0.000 F 
ATOM     37  F   UNL     1       1.369  -4.980   1.647  0.00  0.00    +0.000 F 
ATOM     38  F   UNL     1      -0.084  -5.794   0.249  0.00  0.00    +0.000 F 
ATOM     39  C   UNL     1       1.058  -5.050   0.319  0.00  0.00    +0.000 C 
ENDBRANCH  33  39
ENDBRANCH   5  30
TORSDOF 6
