REMARK  Name = 448202
REMARK  7 active torsions:
REMARK  status: ('A' for Active; 'I' for Inactive)
REMARK    1  A    between atoms: N_1  and  C_12
REMARK    2  A    between atoms: N_2  and  C_13
REMARK    3  A    between atoms: N_7  and  C_30
REMARK    4  A    between atoms: N_7  and  C_33
REMARK    5  A    between atoms: N_7  and  C_34
REMARK    6  A    between atoms: C_19  and  C_20
REMARK    7  A    between atoms: C_25  and  C_27
REMARK                            x       y       z     vdW  Elec       q    Type
REMARK                         _______ _______ _______ _____ _____    ______ ____
ROOT
ATOM      1  N   UNL     1       3.281   0.224   0.132  0.00  0.00    +0.000 N 
ATOM      2  N   UNL     1       4.169  -1.759  -0.336  0.00  0.00    +0.000 NA
ATOM      3  C   UNL     1       0.031  -1.571  -0.054  0.00  0.00    +0.000 A 
ATOM      4  C   UNL     1       2.218  -0.634   0.014  0.00  0.00    +0.000 A 
ATOM      5  C   UNL     1       0.841  -0.445   0.134  0.00  0.00    +0.000 A 
ATOM      6  C   UNL     1       2.798  -1.866  -0.278  0.00  0.00    +0.000 A 
ATOM      7  C   UNL     1       0.585  -2.820  -0.348  0.00  0.00    +0.000 A 
ATOM      8  C   UNL     1       4.424  -0.494  -0.086  0.00  0.00    +0.000 A 
ATOM      9  C   UNL     1       1.971  -2.986  -0.464  0.00  0.00    +0.000 A 
ATOM     10  H   UNL     1       3.215   1.214   0.330  0.00  0.00    +0.000 HD
ENDROOT
BRANCH   3  19
ATOM     11  N   UNL     1      -2.047  -0.274  -0.253  0.00  0.00    +0.000 N 
ATOM     12  N   UNL     1      -2.236  -2.371   0.456  0.00  0.00    +0.000 NA
ATOM     13  C   UNL     1      -5.769  -0.160   0.117  0.00  0.00    +0.000 A 
ATOM     14  C   UNL     1      -4.494   0.367  -0.196  0.00  0.00    +0.000 A 
ATOM     15  C   UNL     1      -3.388  -0.469  -0.042  0.00  0.00    +0.000 A 
ATOM     16  C   UNL     1      -5.867  -1.496   0.566  0.00  0.00    +0.000 A 
ATOM     17  C   UNL     1      -3.480  -1.786   0.400  0.00  0.00    +0.000 A 
ATOM     18  C   UNL     1      -4.743  -2.317   0.713  0.00  0.00    +0.000 A 
ATOM     19  C   UNL     1      -1.401  -1.438   0.058  0.00  0.00    +0.000 A 
ATOM     20  H   UNL     1      -1.627   0.581  -0.594  0.00  0.00    +0.000 HD
BRANCH  13  21
ATOM     21  N   UNL     1      -6.915   0.632  -0.017  0.00  0.00    +0.000 N 
ATOM     22  N   UNL     1      -9.138   2.422  -0.136  0.00  0.00    +0.000 NA
ATOM     23  C   UNL     1      -6.954   1.688  -1.034  0.00  0.00    +0.000 C 
ATOM     24  C   UNL     1      -7.732   0.871   1.179  0.00  0.00    +0.000 C 
ATOM     25  C   UNL     1      -8.401   2.071  -1.356  0.00  0.00    +0.000 C 
ATOM     26  C   UNL     1      -9.154   1.278   0.785  0.00  0.00    +0.000 C 
ATOM     27  C   UNL     1     -10.502   2.837  -0.462  0.00  0.00    +0.000 C 
ENDBRANCH  13  21
ENDBRANCH   3  19
BRANCH   8  28
ATOM     28  C   UNL     1       5.731   0.115  -0.033  0.00  0.00    +0.000 A 
ATOM     29  C   UNL     1       6.767  -0.392  -0.817  0.00  0.00    +0.000 A 
ATOM     30  C   UNL     1       5.958   1.209   0.801  0.00  0.00    +0.000 A 
ATOM     31  C   UNL     1       8.258   1.290   0.069  0.00  0.00    +0.000 A 
ATOM     32  C   UNL     1       8.031   0.196  -0.766  0.00  0.00    +0.000 A 
ATOM     33  C   UNL     1       7.222   1.796   0.853  0.00  0.00    +0.000 A 
BRANCH  31  34
ATOM     34  N   UNL     1       9.536   1.885   0.120  0.00  0.00    +0.000 N 
ATOM     35  C   UNL     1      10.620   1.367  -0.692  0.00  0.00    +0.000 C 
ATOM     36  C   UNL     1       9.779   3.031   0.974  0.00  0.00    +0.000 C 
ENDBRANCH  31  34
ENDBRANCH   8  28
TORSDOF 4
