REMARK  Name = 5287936
REMARK  5 active torsions:
REMARK  status: ('A' for Active; 'I' for Inactive)
REMARK    1  A    between atoms: N_3  and  C_9
REMARK    2  A    between atoms: N_3  and  C_19
REMARK    3  A    between atoms: C_7  and  C_8
REMARK    4  A    between atoms: C_12  and  C_17
REMARK    5  A    between atoms: C_20  and  C_25
REMARK                            x       y       z     vdW  Elec       q    Type
REMARK                         _______ _______ _______ _____ _____    ______ ____
ROOT
ATOM      1  N   UNL     1      -0.779  -1.683  -0.162  0.00  0.00    +0.000 N 
ATOM      2  N   UNL     1      -1.327  -0.476   0.125  0.00  0.00    +0.000 NA
ATOM      3  N   UNL     1       0.668  -3.321  -0.322  0.00  0.00    +0.000 NA
ATOM      4  N   UNL     1      -0.527  -3.749  -0.864  0.00  0.00    +0.000 NA
ATOM      5  C   UNL     1       0.500  -2.086   0.091  0.00  0.00    +0.000 A 
ATOM      6  C   UNL     1      -1.389  -2.759  -0.763  0.00  0.00    +0.000 A 
ATOM      7  C   UNL     1      -2.578  -0.371  -0.223  0.00  0.00    +0.000 A 
ATOM      8  C   UNL     1      -2.737  -2.611  -1.143  0.00  0.00    +0.000 A 
ATOM      9  C   UNL     1      -3.365  -1.452  -0.900  0.00  0.00    +0.000 A 
ENDROOT
BRANCH   5  10
ATOM     10  C   UNL     1       1.498  -1.256   0.721  0.00  0.00    +0.000 A 
ATOM     11  C   UNL     1       3.289   0.357   0.553  0.00  0.00    +0.000 A 
ATOM     12  C   UNL     1       2.325  -0.446  -0.057  0.00  0.00    +0.000 A 
ATOM     13  C   UNL     1       1.635  -1.264   2.109  0.00  0.00    +0.000 A 
ATOM     14  C   UNL     1       3.426   0.349   1.941  0.00  0.00    +0.000 A 
ATOM     15  C   UNL     1       2.599  -0.462   2.719  0.00  0.00    +0.000 A 
BRANCH  11  17
ATOM     16  O   UNL     1       2.628   1.491  -2.028  0.00  0.00    +0.000 OA
ATOM     17  N   UNL     1       4.116   1.168  -0.225  0.00  0.00    +0.000 N 
ATOM     18  C   UNL     1       5.457   1.547   0.319  0.00  0.00    +0.000 C 
ATOM     19  C   UNL     1       3.708   1.731  -1.483  0.00  0.00    +0.000 C 
ATOM     20  C   UNL     1       4.643   2.703  -2.166  0.00  0.00    +0.000 C 
ENDBRANCH  11  17
ENDBRANCH   5  10
BRANCH   7  21
ATOM     21  C   UNL     1      -3.295   0.904   0.044  0.00  0.00    +0.000 A 
ATOM     22  C   UNL     1      -4.669   0.894   0.272  0.00  0.00    +0.000 A 
ATOM     23  C   UNL     1      -2.589   2.105   0.064  0.00  0.00    +0.000 A 
ATOM     24  C   UNL     1      -5.341   2.090   0.521  0.00  0.00    +0.000 A 
ATOM     25  C   UNL     1      -3.261   3.301   0.314  0.00  0.00    +0.000 A 
ATOM     26  C   UNL     1      -4.637   3.294   0.542  0.00  0.00    +0.000 A 
ENDBRANCH   7  21
TORSDOF 3
