REMARK  Name = 
REMARK  5 active torsions:
REMARK  status: ('A' for Active; 'I' for Inactive)
REMARK    1  A    between atoms: C_1  and  C_2
REMARK    2  A    between atoms: C_2  and  O_3
REMARK    3  A    between atoms: C_5  and  C_6
REMARK    4  A    between atoms: C_8  and  C_9
REMARK    5  A    between atoms: C_15  and  C_16
REMARK                            x       y       z     vdW  Elec       q    Type
REMARK                         _______ _______ _______ _____ _____    ______ ____
ROOT
ATOM      1  C   UNL     1      -3.686   0.270   0.436  0.00  0.00    +0.000 A 
ATOM      2  N   UNL     1      -2.412   0.707   0.600  0.00  0.00    +0.000 NA
ATOM      3  C   UNL     1      -1.542  -0.102  -0.019  0.00  0.00    +0.000 A 
ATOM      4  C   UNL     1      -2.324  -1.146  -0.505  0.00  0.00    +0.000 A 
ATOM      5  C   UNL     1      -2.005  -2.345  -1.134  0.00  0.00    +0.000 A 
ATOM      6  N   UNL     1      -0.899  -2.228  -2.037  0.00  0.00    +0.000 N 
ATOM      7  N   UNL     1      -2.967  -3.285  -1.291  0.00  0.00    +0.000 NA
ATOM      8  C   UNL     1      -4.128  -3.136  -0.606  0.00  0.00    +0.000 A 
ATOM      9  C   UNL     1      -4.569  -1.845  -0.336  0.00  0.00    +0.000 A 
ATOM     10  N   UNL     1      -3.600  -0.945  -0.109  0.00  0.00    +0.000 N 
ATOM     11  H   UNL     1      -0.217  -1.533  -1.893  0.00  0.00    +0.000 HD
ATOM     12  H   UNL     1      -0.821  -2.844  -2.801  0.00  0.00    +0.000 HD
ENDROOT
BRANCH   3  13
ATOM     13  C   UNL     1      -0.116  -0.318   0.228  0.00  0.00    +0.000 A 
ATOM     14  C   UNL     1       0.352  -1.439   0.907  0.00  0.00    +0.000 A 
ATOM     15  C   UNL     1       1.659  -1.881   0.732  0.00  0.00    +0.000 A 
ATOM     16  C   UNL     1       2.419  -1.128  -0.157  0.00  0.00    +0.000 A 
ATOM     17  C   UNL     1       3.581  -1.571  -0.729  0.00  0.00    +0.000 A 
ATOM     18  C   UNL     1       4.565  -0.615  -0.953  0.00  0.00    +0.000 A 
ATOM     19  C   UNL     1       4.466   0.681  -0.459  0.00  0.00    +0.000 A 
ATOM     20  N   UNL     1       3.197   1.128  -0.281  0.00  0.00    +0.000 NA
ATOM     21  C   UNL     1       2.183   0.243  -0.118  0.00  0.00    +0.000 A 
ATOM     22  C   UNL     1       0.851   0.640  -0.056  0.00  0.00    +0.000 A 
BRANCH  19  23
ATOM     23  C   UNL     1       5.622   1.357   0.148  0.00  0.00    +0.000 A 
ATOM     24  C   UNL     1       6.108   2.564  -0.338  0.00  0.00    +0.000 A 
ATOM     25  C   UNL     1       7.481   2.769  -0.280  0.00  0.00    +0.000 A 
ATOM     26  C   UNL     1       8.341   1.848   0.257  0.00  0.00    +0.000 A 
ATOM     27  C   UNL     1       7.794   0.883   1.099  0.00  0.00    +0.000 A 
ATOM     28  C   UNL     1       6.411   0.742   1.112  0.00  0.00    +0.000 A 
ENDBRANCH  19  23
ENDBRANCH   3  13
BRANCH   1  32
ATOM     29  C   UNL     1      -7.332   2.373   0.500  0.00  0.00    +0.000 C 
ATOM     30  C   UNL     1      -6.471   1.428   1.217  0.00  0.00    +0.000 C 
ATOM     31  C   UNL     1      -6.056   0.336   0.240  0.00  0.00    +0.000 C 
ATOM     32  C   UNL     1      -4.797   1.328  -0.050  0.00  0.00    +0.000 C 
ATOM     33  C   UNL     1      -5.059   1.879   1.459  0.00  0.00    +0.000 C 
BRANCH  30  34
ATOM     34  O   UNL     1      -7.069   0.805   2.320  0.00  0.00    +0.000 OA
ATOM     35  H   UNL     1      -7.974   0.542   2.092  0.00  0.00    +0.000 HD
ENDBRANCH  30  34
ENDBRANCH   1  32
TORSDOF 4
