REMARK  Name = 11304412
REMARK  5 active torsions:
REMARK  status: ('A' for Active; 'I' for Inactive)
REMARK    1  A    between atoms: N_4  and  C_8
REMARK    2  A    between atoms: N_4  and  C_13
REMARK    3  A    between atoms: C_9  and  C_12
REMARK    4  A    between atoms: C_13  and  C_15
REMARK    5  A    between atoms: C_14  and  C_20
REMARK                            x       y       z     vdW  Elec       q    Type
REMARK                         _______ _______ _______ _____ _____    ______ ____
ROOT
ATOM      1 BR   UNL     1       3.287  -4.612   0.154  0.00  0.00    +0.000 Br
ATOM      2  N   UNL     1       0.285  -1.892  -0.072  0.00  0.00    +0.000 N 
ATOM      3  N   UNL     1       2.593  -1.204  -0.058  0.00  0.00    +0.000 NA
ATOM      4  N   UNL     1      -0.459  -3.034  -0.022  0.00  0.00    +0.000 NA
ATOM      5  C   UNL     1      -0.177  -0.570  -0.166  0.00  0.00    +0.000 A 
ATOM      6  C   UNL     1       2.166   0.024  -0.131  0.00  0.00    +0.000 A 
ATOM      7  C   UNL     1       0.726   0.425  -0.201  0.00  0.00    +0.000 A 
ATOM      8  C   UNL     1       1.649  -2.183  -0.024  0.00  0.00    +0.000 A 
ATOM      9  C   UNL     1       1.756  -3.553   0.057  0.00  0.00    +0.000 A 
ATOM     10  C   UNL     1       0.436  -4.018   0.055  0.00  0.00    +0.000 A 
ENDROOT
BRANCH   6  11
ATOM     11  C   UNL     1       3.162   1.127  -0.165  0.00  0.00    +0.000 A 
ATOM     12  C   UNL     1       3.605   1.734   1.009  0.00  0.00    +0.000 A 
ATOM     13  C   UNL     1       3.651   1.552  -1.399  0.00  0.00    +0.000 A 
ATOM     14  C   UNL     1       4.540   2.767   0.949  0.00  0.00    +0.000 A 
ATOM     15  C   UNL     1       3.096   1.297   2.345  0.00  0.00    +0.000 C 
ATOM     16  C   UNL     1       4.585   2.586  -1.459  0.00  0.00    +0.000 A 
ATOM     17  C   UNL     1       5.030   3.194  -0.285  0.00  0.00    +0.000 A 
ENDBRANCH   6  11
BRANCH   5  18
ATOM     18  N   UNL     1      -1.528  -0.376  -0.223  0.00  0.00    +0.000 N 
ATOM     19  H   UNL     1      -2.122  -1.199  -0.198  0.00  0.00    +0.000 HD
BRANCH  18  20
ATOM     20  C   UNL     1      -2.113   0.927  -0.328  0.00  0.00    +0.000 C 
BRANCH  20  23
ATOM     21  O   UNL     1      -6.328   0.934   1.972  0.00  0.00    +0.000 OA
ATOM     22  N   UNL     1      -5.690   0.876   0.872  0.00  0.00    +0.000 N 
ATOM     23  C   UNL     1      -3.617   0.867  -0.338  0.00  0.00    +0.000 A 
ATOM     24  C   UNL     1      -4.310   0.930   0.858  0.00  0.00    +0.000 A 
ATOM     25  C   UNL     1      -4.293   0.749  -1.538  0.00  0.00    +0.000 A 
ATOM     26  C   UNL     1      -5.683   0.694  -1.535  0.00  0.00    +0.000 A 
ATOM     27  C   UNL     1      -6.368   0.758  -0.326  0.00  0.00    +0.000 A 
ENDBRANCH  20  23
ENDBRANCH  18  20
ENDBRANCH   5  18
TORSDOF 4
