REMARK  Name = 46207586
REMARK  7 active torsions:
REMARK  status: ('A' for Active; 'I' for Inactive)
REMARK    1  A    between atoms: O_3  and  C_28
REMARK    2  A    between atoms: N_5  and  C_22
REMARK    3  A    between atoms: N_9  and  C_25
REMARK    4  A    between atoms: N_10  and  C_30
REMARK    5  A    between atoms: C_13  and  C_16
REMARK    6  A    between atoms: C_14  and  C_15
REMARK    7  A    between atoms: C_22  and  C_28
REMARK                            x       y       z     vdW  Elec       q    Type
REMARK                         _______ _______ _______ _____ _____    ______ ____
ROOT
ATOM      1  S   UNL     1      -3.719  -1.413  -1.037  0.00  0.00    +0.000 S 
ATOM      2  N   UNL     1      -3.234   2.482   1.122  0.00  0.00    +0.000 NA
ATOM      3  N   UNL     1      -0.918   2.043   1.302  0.00  0.00    +0.000 N 
ATOM      4  C   UNL     1      -2.389   0.437   0.186  0.00  0.00    +0.000 A 
ATOM      5  C   UNL     1      -3.684   0.106  -0.223  0.00  0.00    +0.000 A 
ATOM      6  C   UNL     1      -1.451  -0.583  -0.188  0.00  0.00    +0.000 A 
ATOM      7  C   UNL     1      -4.767   0.956   0.035  0.00  0.00    +0.000 A 
ATOM      8  C   UNL     1      -2.199   1.650   0.865  0.00  0.00    +0.000 A 
ATOM      9  C   UNL     1      -2.039  -1.633  -0.853  0.00  0.00    +0.000 A 
ATOM     10  C   UNL     1      -4.466   2.125   0.711  0.00  0.00    +0.000 A 
ATOM     11  H   UNL     1      -0.090   1.491   1.156  0.00  0.00    +0.000 HD
ATOM     12  H   UNL     1      -0.836   2.927   1.787  0.00  0.00    +0.000 HD
ENDROOT
BRANCH   6  13
ATOM     13  C   UNL     1      -0.029  -0.617   0.048  0.00  0.00    +0.000 A 
ATOM     14  C   UNL     1       0.848  -0.073  -0.890  0.00  0.00    +0.000 A 
ATOM     15  C   UNL     1       0.470  -1.194   1.216  0.00  0.00    +0.000 A 
ATOM     16  C   UNL     1       2.722  -0.683   0.507  0.00  0.00    +0.000 A 
ATOM     17  C   UNL     1       2.224  -0.106  -0.661  0.00  0.00    +0.000 A 
ATOM     18  C   UNL     1       1.846  -1.227   1.446  0.00  0.00    +0.000 A 
BRANCH  16  20
ATOM     19  O   UNL     1       4.980   0.332  -1.164  0.00  0.00    +0.000 OA
ATOM     20  N   UNL     1       4.098  -0.715   0.737  0.00  0.00    +0.000 N 
ATOM     21  N   UNL     1       6.384  -0.461   0.529  0.00  0.00    +0.000 N 
ATOM     22  C   UNL     1       5.143  -0.222  -0.082  0.00  0.00    +0.000 C 
ATOM     23  H   UNL     1       4.385  -1.152   1.610  0.00  0.00    +0.000 HD
ATOM     24  H   UNL     1       6.366  -0.932   1.431  0.00  0.00    +0.000 HD
BRANCH  21  26
ATOM     25  F   UNL     1      11.158  -0.422   1.044  0.00  0.00    +0.000 F 
ATOM     26  C   UNL     1       7.672  -0.127   0.046  0.00  0.00    +0.000 A 
ATOM     27  C   UNL     1       8.802  -0.446   0.798  0.00  0.00    +0.000 A 
ATOM     28  C   UNL     1       7.810   0.522  -1.181  0.00  0.00    +0.000 A 
ATOM     29  C   UNL     1      10.072  -0.116   0.323  0.00  0.00    +0.000 A 
ATOM     30  C   UNL     1       9.079   0.852  -1.656  0.00  0.00    +0.000 A 
ATOM     31  C   UNL     1      10.210   0.533  -0.904  0.00  0.00    +0.000 A 
ENDBRANCH  21  26
ENDBRANCH  16  20
ENDBRANCH   6  13
BRANCH   7  34
ATOM     32  N   UNL     1      -8.236   0.188  -0.295  0.00  0.00    +0.000 N 
ATOM     33  N   UNL     1      -7.954   0.123  -1.608  0.00  0.00    +0.000 NA
ATOM     34  C   UNL     1      -6.099   0.634  -0.377  0.00  0.00    +0.000 A 
ATOM     35  C   UNL     1      -7.159   0.490   0.485  0.00  0.00    +0.000 A 
ATOM     36  C   UNL     1      -6.648   0.397  -1.651  0.00  0.00    +0.000 A 
BRANCH  32  37
ATOM     37  C   UNL     1      -9.583  -0.056   0.161  0.00  0.00    +0.000 C 
BRANCH  37  38
ATOM     38  C   UNL     1      -9.929  -1.541   0.182  0.00  0.00    +0.000 C 
BRANCH  38  39
ATOM     39  O   UNL     1      -9.016  -2.234   1.024  0.00  0.00    +0.000 OA
ATOM     40  H   UNL     1      -9.273  -3.172   1.012  0.00  0.00    +0.000 HD
ENDBRANCH  38  39
ENDBRANCH  37  38
ENDBRANCH  32  37
ENDBRANCH   7  34
TORSDOF 7
