REMARK  Name = 10437018
REMARK  8 active torsions:
REMARK  status: ('A' for Active; 'I' for Inactive)
REMARK    1  A    between atoms: O_3  and  C_16
REMARK    2  A    between atoms: O_3  and  C_28
REMARK    3  A    between atoms: N_7  and  C_26
REMARK    4  A    between atoms: N_8  and  C_25
REMARK    5  A    between atoms: N_9  and  C_20
REMARK    6  A    between atoms: C_13  and  C_16
REMARK    7  A    between atoms: C_19  and  C_30
REMARK    8  A    between atoms: C_26  and  C_33
REMARK                            x       y       z     vdW  Elec       q    Type
REMARK                         _______ _______ _______ _____ _____    ______ ____
ROOT
ATOM      1  N   UNL     1       1.825  -2.224  -0.479  0.00  0.00    +0.000 N 
ATOM      2  N   UNL     1      -0.919   0.259  -0.421  0.00  0.00    +0.000 N 
ATOM      3  N   UNL     1       1.152  -3.385  -0.661  0.00  0.00    +0.000 NA
ATOM      4  N   UNL     1      -0.854  -2.050  -0.672  0.00  0.00    +0.000 NA
ATOM      5  C   UNL     1       1.222  -0.996  -0.390  0.00  0.00    +0.000 A 
ATOM      6  C   UNL     1       2.204  -0.048  -0.207  0.00  0.00    +0.000 A 
ATOM      7  C   UNL     1       3.446  -0.733  -0.184  0.00  0.00    +0.000 A 
ATOM      8  C   UNL     1      -0.216  -0.919  -0.496  0.00  0.00    +0.000 A 
ATOM      9  C   UNL     1       3.182  -2.075  -0.354  0.00  0.00    +0.000 A 
ATOM     10  C   UNL     1       2.030   1.412  -0.059  0.00  0.00    +0.000 C 
ATOM     11  C   UNL     1      -0.139  -3.231  -0.747  0.00  0.00    +0.000 A 
ATOM     12  H   UNL     1      -0.462   1.122  -0.696  0.00  0.00    +0.000 HD
ENDROOT
BRANCH   2  17
ATOM     13  N   UNL     1      -5.986   0.693   1.641  0.00  0.00    +0.000 N 
ATOM     14  N   UNL     1      -6.052  -0.291   2.553  0.00  0.00    +0.000 NA
ATOM     15  C   UNL     1      -4.785   0.774   0.989  0.00  0.00    +0.000 A 
ATOM     16  C   UNL     1      -4.008  -0.247   1.525  0.00  0.00    +0.000 A 
ATOM     17  C   UNL     1      -2.216   0.425   0.058  0.00  0.00    +0.000 A 
ATOM     18  C   UNL     1      -2.697  -0.432   1.056  0.00  0.00    +0.000 A 
ATOM     19  C   UNL     1      -4.325   1.640  -0.006  0.00  0.00    +0.000 A 
ATOM     20  C   UNL     1      -3.018   1.443  -0.462  0.00  0.00    +0.000 A 
ATOM     21  C   UNL     1      -4.848  -0.861   2.479  0.00  0.00    +0.000 A 
BRANCH  13  22
ATOM     22  C   UNL     1      -7.137   1.544   1.439  0.00  0.00    +0.000 C 
BRANCH  22  24
ATOM     23  F   UNL     1      -8.540   1.184  -3.221  0.00  0.00    +0.000 F 
ATOM     24  C   UNL     1      -8.049   0.989   0.379  0.00  0.00    +0.000 A 
ATOM     25  C   UNL     1      -7.868   1.351  -0.956  0.00  0.00    +0.000 A 
ATOM     26  C   UNL     1      -9.077   0.115   0.731  0.00  0.00    +0.000 A 
ATOM     27  C   UNL     1      -8.714   0.837  -1.939  0.00  0.00    +0.000 A 
ATOM     28  C   UNL     1      -9.924  -0.399  -0.252  0.00  0.00    +0.000 A 
ATOM     29  C   UNL     1      -9.742  -0.037  -1.587  0.00  0.00    +0.000 A 
ENDBRANCH  22  24
ENDBRANCH  13  22
ENDBRANCH   2  17
BRANCH   7  31
ATOM     30  O   UNL     1       6.123  -2.059  -0.118  0.00  0.00    +0.000 OA
ATOM     31  N   UNL     1       4.722  -0.185  -0.021  0.00  0.00    +0.000 N 
ATOM     32  C   UNL     1       5.929  -0.856   0.000  0.00  0.00    +0.000 C 
ATOM     33  H   UNL     1       4.760   0.824   0.091  0.00  0.00    +0.000 HD
BRANCH  32  34
ATOM     34  O   UNL     1       6.950   0.051   0.182  0.00  0.00    +0.000 OA
BRANCH  34  35
ATOM     35  C   UNL     1       8.264  -0.472   0.229  0.00  0.00    +0.000 C 
BRANCH  35  38
ATOM     36  O   UNL     1      10.086   2.751  -0.520  0.00  0.00    +0.000 OA
ATOM     37  N   UNL     1      10.609   0.155   0.543  0.00  0.00    +0.000 NA
ATOM     38  C   UNL     1       9.240   0.682   0.435  0.00  0.00    +0.000 C 
ATOM     39  C   UNL     1       9.150   1.688  -0.716  0.00  0.00    +0.000 C 
ATOM     40  C   UNL     1      11.561   1.260   0.690  0.00  0.00    +0.000 C 
ATOM     41  C   UNL     1      11.421   2.249  -0.460  0.00  0.00    +0.000 C 
ATOM     42  H   UNL     1      10.834  -0.366  -0.305  0.00  0.00    +0.000 HD
ENDBRANCH  35  38
ENDBRANCH  34  35
ENDBRANCH  32  34
ENDBRANCH   7  31
TORSDOF 7
