REMARK  Name = 11256720
REMARK  3 active torsions:
REMARK  status: ('A' for Active; 'I' for Inactive)
REMARK    1  A    between atoms: S_1  and  C_15
REMARK    2  A    between atoms: S_1  and  C_20
REMARK    3  A    between atoms: N_4  and  C_11
REMARK                            x       y       z     vdW  Elec       q    Type
REMARK                         _______ _______ _______ _____ _____    ______ ____
ROOT
ATOM      1  N   UNL     1      -0.963  -0.476  -0.670  0.00  0.00    +0.000 NA
ATOM      2  C   UNL     1      -2.696   0.777   0.359  0.00  0.00    +0.000 A 
ATOM      3  C   UNL     1      -1.379   0.660  -0.080  0.00  0.00    +0.000 A 
ATOM      4  C   UNL     1      -0.515   1.758   0.115  0.00  0.00    +0.000 A 
ATOM      5  C   UNL     1      -3.162   1.941   0.975  0.00  0.00    +0.000 A 
ATOM      6  C   UNL     1       1.242   0.472  -0.935  0.00  0.00    +0.000 A 
ATOM      7  C   UNL     1       0.810   1.641  -0.326  0.00  0.00    +0.000 A 
ATOM      8  C   UNL     1      -0.984   2.929   0.735  0.00  0.00    +0.000 A 
ATOM      9  C   UNL     1      -2.305   3.018   1.164  0.00  0.00    +0.000 A 
ATOM     10  C   UNL     1       0.324  -0.548  -1.081  0.00  0.00    +0.000 A 
ENDROOT
BRANCH   2  11
ATOM     11  N   UNL     1      -3.591  -0.285   0.188  0.00  0.00    +0.000 N 
ATOM     12  N   UNL     1      -5.551  -2.355   0.037  0.00  0.00    +0.000 NA
ATOM     13  C   UNL     1      -3.691  -1.284   1.260  0.00  0.00    +0.000 C 
ATOM     14  C   UNL     1      -4.803  -0.092  -0.616  0.00  0.00    +0.000 C 
ATOM     15  C   UNL     1      -4.281  -2.588   0.724  0.00  0.00    +0.000 C 
ATOM     16  C   UNL     1      -5.355  -1.438  -1.085  0.00  0.00    +0.000 C 
ATOM     17  H   UNL     1      -5.911  -3.242  -0.313  0.00  0.00    +0.000 HD
ENDBRANCH   2  11
BRANCH   6  18
ATOM     18  S   UNL     1       2.880   0.298  -1.494  0.00  0.00    +0.000 S 
ATOM     19  O   UNL     1       3.447   1.619  -1.745  0.00  0.00    +0.000 OA
ATOM     20  O   UNL     1       2.851  -0.687  -2.568  0.00  0.00    +0.000 OA
BRANCH  18  21
ATOM     21  C   UNL     1       3.862  -0.374  -0.177  0.00  0.00    +0.000 A 
ATOM     22  C   UNL     1       3.983  -1.745  -0.066  0.00  0.00    +0.000 A 
ATOM     23  C   UNL     1       4.481   0.491   0.704  0.00  0.00    +0.000 A 
ATOM     24  C   UNL     1       4.754  -2.273   0.970  0.00  0.00    +0.000 A 
ATOM     25  C   UNL     1       5.253  -0.038   1.739  0.00  0.00    +0.000 A 
ATOM     26  C   UNL     1       5.389  -1.420   1.872  0.00  0.00    +0.000 A 
ENDBRANCH  18  21
ENDBRANCH   6  18
TORSDOF 3
