REMARK  Name = 11282283
REMARK  4 active torsions:
REMARK  status: ('A' for Active; 'I' for Inactive)
REMARK    1  A    between atoms: N_6  and  C_15
REMARK    2  A    between atoms: N_7  and  C_15
REMARK    3  A    between atoms: N_7  and  C_20
REMARK    4  A    between atoms: C_20  and  C_21
REMARK                            x       y       z     vdW  Elec       q    Type
REMARK                         _______ _______ _______ _____ _____    ______ ____
ROOT
ATOM      1  O   UNL     1      -3.880  -0.583   0.616  0.00  0.00    +0.000 OA
ATOM      2  N   UNL     1      -1.831   1.296  -0.347  0.00  0.00    +0.000 N 
ATOM      3  N   UNL     1       0.731   1.654   0.916  0.00  0.00    +0.000 N 
ATOM      4  N   UNL     1      -3.410   1.835  -2.058  0.00  0.00    +0.000 NA
ATOM      5  N   UNL     1      -5.597   0.755  -2.179  0.00  0.00    +0.000 NA
ATOM      6  C   UNL     1      -0.655   1.686  -1.132  0.00  0.00    +0.000 C 
ATOM      7  C   UNL     1      -1.671   1.092   1.097  0.00  0.00    +0.000 C 
ATOM      8  C   UNL     1       0.628   1.198  -0.462  0.00  0.00    +0.000 C 
ATOM      9  C   UNL     1      -0.506   1.921   1.634  0.00  0.00    +0.000 C 
ATOM     10  C   UNL     1      -3.072   1.126  -0.958  0.00  0.00    +0.000 A 
ATOM     11  C   UNL     1      -3.997   0.229  -0.466  0.00  0.00    +0.000 A 
ATOM     12  C   UNL     1      -5.232   0.058  -1.075  0.00  0.00    +0.000 A 
ATOM     13  C   UNL     1      -5.920  -0.925  -0.318  0.00  0.00    +0.000 A 
ATOM     14  C   UNL     1      -5.047  -1.286   0.708  0.00  0.00    +0.000 A 
ATOM     15  C   UNL     1      -4.634   1.609  -2.593  0.00  0.00    +0.000 A 
ATOM     16  C   UNL     1      -7.177  -1.550  -0.381  0.00  0.00    +0.000 A 
ATOM     17  C   UNL     1      -5.344  -2.236   1.684  0.00  0.00    +0.000 A 
ATOM     18  C   UNL     1      -7.502  -2.509   0.588  0.00  0.00    +0.000 A 
ATOM     19  C   UNL     1      -6.600  -2.844   1.601  0.00  0.00    +0.000 A 
ENDROOT
BRANCH   3  21
ATOM     20  S   UNL     1       2.160   2.970   2.709  0.00  0.00    +0.000 S 
ATOM     21  C   UNL     1       1.939   1.824   1.510  0.00  0.00    +0.000 C 
BRANCH  21  22
ATOM     22  N   UNL     1       2.972   1.022   1.095  0.00  0.00    +0.000 N 
ATOM     23  H   UNL     1       2.760   0.305   0.409  0.00  0.00    +0.000 HD
BRANCH  22  24
ATOM     24  C   UNL     1       4.330   1.050   1.602  0.00  0.00    +0.000 C 
BRANCH  24  27
ATOM     25  O   UNL     1       7.455  -0.260  -1.989  0.00  0.00    +0.000 OA
ATOM     26  O   UNL     1       7.663  -2.508  -1.147  0.00  0.00    +0.000 OA
ATOM     27  C   UNL     1       5.216   0.070   0.889  0.00  0.00    +0.000 A 
ATOM     28  C   UNL     1       5.906   0.473  -0.250  0.00  0.00    +0.000 A 
ATOM     29  C   UNL     1       5.332  -1.236   1.385  0.00  0.00    +0.000 A 
ATOM     30  C   UNL     1       6.708  -0.463  -0.870  0.00  0.00    +0.000 A 
ATOM     31  C   UNL     1       6.827  -1.747  -0.389  0.00  0.00    +0.000 A 
ATOM     32  C   UNL     1       6.150  -2.165   0.739  0.00  0.00    +0.000 A 
ATOM     33  C   UNL     1       8.058  -1.559  -2.158  0.00  0.00    +0.000 C 
ENDBRANCH  24  27
ENDBRANCH  22  24
ENDBRANCH  21  22
ENDBRANCH   3  21
TORSDOF 4
