REMARK  Name = 6450806
REMARK  9 active torsions:
REMARK  status: ('A' for Active; 'I' for Inactive)
REMARK    1  A    between atoms: O_1  and  C_28
REMARK    2  A    between atoms: O_1  and  C_34
REMARK    3  A    between atoms: O_3  and  C_33
REMARK    4  A    between atoms: O_3  and  C_35
REMARK    5  A    between atoms: N_4  and  C_14
REMARK    6  A    between atoms: C_14  and  C_20
REMARK    7  A    between atoms: C_20  and  C_24
REMARK    8  A    between atoms: C_21  and  C_28
REMARK    9  A    between atoms: C_35  and  C_36
REMARK                            x       y       z     vdW  Elec       q    Type
REMARK                         _______ _______ _______ _____ _____    ______ ____
ROOT
ATOM      1  N   UNL     1       1.466  -0.802  -1.674  0.00  0.00    +0.000 NA
ATOM      2  N   UNL     1       6.477   1.167   0.265  0.00  0.00    +0.000 N 
ATOM      3  N   UNL     1       6.575   0.807  -1.916  0.00  0.00    +0.000 NA
ATOM      4  C   UNL     1       4.289  -1.038  -1.124  0.00  0.00    +0.000 C 
ATOM      5  C   UNL     1       3.785  -0.045  -2.135  0.00  0.00    +0.000 C 
ATOM      6  C   UNL     1       3.363  -2.199  -0.889  0.00  0.00    +0.000 C 
ATOM      7  C   UNL     1       2.347   0.370  -1.807  0.00  0.00    +0.000 C 
ATOM      8  C   UNL     1       1.940  -1.702  -0.609  0.00  0.00    +0.000 C 
ATOM      9  C   UNL     1       5.447  -0.885  -0.466  0.00  0.00    +0.000 C 
ATOM     10  C   UNL     1       5.880  -1.915   0.525  0.00  0.00    +0.000 A 
ATOM     11  C   UNL     1       6.164   0.310  -0.762  0.00  0.00    +0.000 A 
ATOM     12  C   UNL     1       6.127   0.971   1.656  0.00  0.00    +0.000 C 
ATOM     13  C   UNL     1       6.511  -1.607   1.754  0.00  0.00    +0.000 A 
ATOM     14  C   UNL     1       6.861  -0.219   2.260  0.00  0.00    +0.000 C 
ATOM     15  C   UNL     1       7.144   2.237  -0.255  0.00  0.00    +0.000 A 
ATOM     16  C   UNL     1       5.706  -3.277   0.188  0.00  0.00    +0.000 A 
ATOM     17  C   UNL     1       6.917  -2.668   2.596  0.00  0.00    +0.000 A 
ATOM     18  C   UNL     1       7.193   1.992  -1.606  0.00  0.00    +0.000 A 
ATOM     19  C   UNL     1       6.107  -4.306   1.041  0.00  0.00    +0.000 A 
ATOM     20  C   UNL     1       6.710  -4.001   2.250  0.00  0.00    +0.000 A 
ENDROOT
BRANCH  15  22
ATOM     21  O   UNL     1       7.608   3.557   1.680  0.00  0.00    +0.000 OA
ATOM     22  C   UNL     1       7.667   3.361   0.451  0.00  0.00    +0.000 C 
BRANCH  22  23
ATOM     23  O   UNL     1       8.280   4.262  -0.396  0.00  0.00    +0.000 OA
ATOM     24  C   UNL     1       8.848   5.436   0.196  0.00  0.00    +0.000 C 
ENDBRANCH  22  23
ENDBRANCH  15  22
BRANCH   1  25
ATOM     25  C   UNL     1       0.090  -0.380  -1.411  0.00  0.00    +0.000 C 
BRANCH  25  26
ATOM     26  C   UNL     1      -0.845  -1.587  -1.318  0.00  0.00    +0.000 C 
BRANCH  26  27
ATOM     27  C   UNL     1      -2.271  -1.164  -1.069  0.00  0.00    +0.000 A 
ATOM     28  C   UNL     1      -2.724  -1.030   0.234  0.00  0.00    +0.000 A 
ATOM     29  C   UNL     1      -3.106  -0.918  -2.149  0.00  0.00    +0.000 A 
ATOM     30  C   UNL     1      -4.043  -0.639   0.464  0.00  0.00    +0.000 A 
ATOM     31  C   UNL     1      -4.425  -0.528  -1.919  0.00  0.00    +0.000 A 
ATOM     32  C   UNL     1      -4.894  -0.388  -0.613  0.00  0.00    +0.000 A 
BRANCH  32  33
ATOM     33  O   UNL     1      -6.181  -0.007  -0.388  0.00  0.00    +0.000 OA
BRANCH  33  34
ATOM     34  C   UNL     1      -6.593   0.117   0.972  0.00  0.00    +0.000 C 
BRANCH  34  36
ATOM     35  N   UNL     1      -8.864  -0.156   0.177  0.00  0.00    +0.000 NA
ATOM     36  C   UNL     1      -8.040   0.512   1.011  0.00  0.00    +0.000 A 
ATOM     37  C   UNL     1      -8.438   1.509   1.872  0.00  0.00    +0.000 A 
ATOM     38  C   UNL     1     -10.169   0.172   0.183  0.00  0.00    +0.000 A 
ATOM     39  C   UNL     1     -10.679   1.180   1.028  0.00  0.00    +0.000 A 
ATOM     40  C   UNL     1      -9.784   1.845   1.877  0.00  0.00    +0.000 A 
ATOM     41  C   UNL     1     -11.059  -0.488  -0.659  0.00  0.00    +0.000 A 
ATOM     42  C   UNL     1     -12.048   1.497   1.009  0.00  0.00    +0.000 A 
ATOM     43  C   UNL     1     -12.421  -0.173  -0.679  0.00  0.00    +0.000 A 
ATOM     44  C   UNL     1     -12.916   0.821   0.156  0.00  0.00    +0.000 A 
ENDBRANCH  34  36
ENDBRANCH  33  34
ENDBRANCH  32  33
ENDBRANCH  26  27
ENDBRANCH  25  26
ENDBRANCH   1  25
TORSDOF 8
