REMARK  Name = 17754438
REMARK  6 active torsions:
REMARK  status: ('A' for Active; 'I' for Inactive)
REMARK    1  A    between atoms: O_1  and  C_26
REMARK    2  A    between atoms: N_2  and  C_10
REMARK    3  A    between atoms: N_3  and  C_21
REMARK    4  A    between atoms: C_10  and  C_11
REMARK    5  A    between atoms: C_13  and  C_15
REMARK    6  A    between atoms: C_21  and  C_26
REMARK                            x       y       z     vdW  Elec       q    Type
REMARK                         _______ _______ _______ _____ _____    ______ ____
ROOT
ATOM      1  N   UNL     1      -0.813  -2.550   0.779  0.00  0.00    +0.000 N 
ATOM      2  N   UNL     1       1.200  -1.214   0.413  0.00  0.00    +0.000 NA
ATOM      3  N   UNL     1      -1.292  -3.727   0.329  0.00  0.00    +0.000 NA
ATOM      4  N   UNL     1       1.775  -3.452  -1.334  0.00  0.00    +0.000 NA
ATOM      5  N   UNL     1      -0.399  -4.232  -0.522  0.00  0.00    +0.000 NA
ATOM      6  C   UNL     1       0.398  -2.273   0.228  0.00  0.00    +0.000 A 
ATOM      7  C   UNL     1       2.326  -1.323  -0.329  0.00  0.00    +0.000 A 
ATOM      8  C   UNL     1       0.643  -3.355  -0.596  0.00  0.00    +0.000 A 
ATOM      9  C   UNL     1       2.602  -2.395  -1.166  0.00  0.00    +0.000 A 
ENDROOT
BRANCH   7  12
ATOM     10  N   UNL     1       4.171   1.641   0.426  0.00  0.00    +0.000 N 
ATOM     11  N   UNL     1       5.072   1.132  -0.432  0.00  0.00    +0.000 NA
ATOM     12  C   UNL     1       3.259  -0.240  -0.208  0.00  0.00    +0.000 A 
ATOM     13  C   UNL     1       3.067   0.858   0.595  0.00  0.00    +0.000 A 
ATOM     14  C   UNL     1       4.509  -0.017  -0.816  0.00  0.00    +0.000 A 
BRANCH  10  15
ATOM     15  C   UNL     1       4.430   2.907   1.069  0.00  0.00    +0.000 C 
BRANCH  15  16
ATOM     16  C   UNL     1       3.897   4.088   0.269  0.00  0.00    +0.000 C 
BRANCH  16  17
ATOM     17  O   UNL     1       2.485   3.982   0.141  0.00  0.00    +0.000 OA
ATOM     18  H   UNL     1       2.186   4.753  -0.371  0.00  0.00    +0.000 HD
ENDBRANCH  16  17
ENDBRANCH  15  16
ENDBRANCH  10  15
ENDBRANCH   7  12
BRANCH   1  19
ATOM     19  C   UNL     1      -1.579  -1.749   1.740  0.00  0.00    +0.000 C 
BRANCH  19  21
ATOM     20  N   UNL     1      -5.085   1.865  -0.843  0.00  0.00    +0.000 NA
ATOM     21  C   UNL     1      -2.495  -0.790   1.058  0.00  0.00    +0.000 A 
ATOM     22  C   UNL     1      -2.056   0.492   0.740  0.00  0.00    +0.000 A 
ATOM     23  C   UNL     1      -2.917   1.399   0.098  0.00  0.00    +0.000 A 
ATOM     24  C   UNL     1      -3.793  -1.170   0.739  0.00  0.00    +0.000 A 
ATOM     25  C   UNL     1      -4.235   1.020  -0.229  0.00  0.00    +0.000 A 
ATOM     26  C   UNL     1      -4.648  -0.268   0.101  0.00  0.00    +0.000 A 
ATOM     27  C   UNL     1      -2.500   2.695  -0.234  0.00  0.00    +0.000 A 
ATOM     28  C   UNL     1      -3.374   3.568  -0.867  0.00  0.00    +0.000 A 
ATOM     29  C   UNL     1      -4.644   3.107  -1.147  0.00  0.00    +0.000 A 
ENDBRANCH  19  21
ENDBRANCH   1  19
TORSDOF 6
