REMARK  Name = 86292849
REMARK  7 active torsions:
REMARK  status: ('A' for Active; 'I' for Inactive)
REMARK    1  A    between atoms: O_4  and  C_25
REMARK    2  A    between atoms: O_5  and  C_33
REMARK    3  A    between atoms: O_5  and  C_34
REMARK    4  A    between atoms: N_6  and  C_13
REMARK    5  A    between atoms: C_21  and  C_22
REMARK    6  A    between atoms: C_23  and  C_25
REMARK    7  A    between atoms: C_25  and  C_30
REMARK                            x       y       z     vdW  Elec       q    Type
REMARK                         _______ _______ _______ _____ _____    ______ ____
ROOT
ATOM      1 CL   UNL     1       4.878   1.788   2.005  0.00  0.00    +0.000 Cl
ATOM      2  F   UNL     1       0.098   3.413   2.103  0.00  0.00    +0.000 F 
ATOM      3  C   UNL     1       0.785   2.242   0.151  0.00  0.00    +0.000 A 
ATOM      4  C   UNL     1       3.055   1.425   0.013  0.00  0.00    +0.000 A 
ATOM      5  C   UNL     1       1.787   1.571  -0.550  0.00  0.00    +0.000 A 
ATOM      6  C   UNL     1       1.051   2.766   1.416  0.00  0.00    +0.000 A 
ATOM      7  C   UNL     1       3.321   1.950   1.278  0.00  0.00    +0.000 A 
ATOM      8  C   UNL     1       2.319   2.621   1.979  0.00  0.00    +0.000 A 
ENDROOT
BRANCH   3  17
ATOM      9  N   UNL     1      -2.926   2.872  -1.635  0.00  0.00    +0.000 NA
ATOM     10  N   UNL     1      -0.651   3.515  -1.167  0.00  0.00    +0.000 NA
ATOM     11  C   UNL     1      -3.679  -0.308   0.018  0.00  0.00    +0.000 A 
ATOM     12  C   UNL     1      -3.821   0.855  -0.744  0.00  0.00    +0.000 A 
ATOM     13  C   UNL     1      -1.555   1.465  -0.260  0.00  0.00    +0.000 A 
ATOM     14  C   UNL     1      -2.470  -0.588   0.645  0.00  0.00    +0.000 A 
ATOM     15  C   UNL     1      -2.771   1.758  -0.898  0.00  0.00    +0.000 A 
ATOM     16  C   UNL     1      -1.405   0.297   0.508  0.00  0.00    +0.000 A 
ATOM     17  C   UNL     1      -0.531   2.390  -0.436  0.00  0.00    +0.000 A 
ATOM     18  C   UNL     1      -1.858   3.690  -1.730  0.00  0.00    +0.000 A 
BRANCH  11  20
ATOM     19  O   UNL     1      -6.886  -2.943   0.688  0.00  0.00    +0.000 OA
ATOM     20  N   UNL     1      -4.755  -1.191   0.149  0.00  0.00    +0.000 N 
ATOM     21  C   UNL     1      -5.996  -0.688   0.753  0.00  0.00    +0.000 C 
ATOM     22  C   UNL     1      -4.507  -2.625   0.336  0.00  0.00    +0.000 C 
ATOM     23  C   UNL     1      -7.164  -1.583   0.354  0.00  0.00    +0.000 C 
ATOM     24  C   UNL     1      -5.754  -3.417  -0.040  0.00  0.00    +0.000 C 
ENDBRANCH  11  20
ENDBRANCH   3  17
BRANCH   4  25
ATOM     25  C   UNL     1       4.101   0.701  -0.772  0.00  0.00    +0.000 C 
BRANCH  25  28
ATOM     26  N   UNL     1       2.983  -1.482  -0.778  0.00  0.00    +0.000 NA
ATOM     27  N   UNL     1       2.953  -2.826  -0.569  0.00  0.00    +0.000 NA
ATOM     28  C   UNL     1       4.120  -0.802  -0.521  0.00  0.00    +0.000 A 
ATOM     29  C   UNL     1       5.268  -1.409  -0.051  0.00  0.00    +0.000 A 
ATOM     30  C   UNL     1       5.237  -2.776   0.162  0.00  0.00    +0.000 A 
ATOM     31  C   UNL     1       4.061  -3.446  -0.109  0.00  0.00    +0.000 A 
BRANCH  31  32
ATOM     32  O   UNL     1       3.989  -4.797   0.087  0.00  0.00    +0.000 OA
ATOM     33  C   UNL     1       2.746  -5.425  -0.212  0.00  0.00    +0.000 C 
ENDBRANCH  31  32
ENDBRANCH  25  28
BRANCH  25  34
ATOM     34  O   UNL     1       3.976   0.986  -2.175  0.00  0.00    +0.000 OA
ATOM     35  H   UNL     1       4.346   0.238  -2.675  0.00  0.00    +0.000 HD
ENDBRANCH  25  34
ENDBRANCH   4  25
TORSDOF 6
