REMARK  Name = 11569967
REMARK  6 active torsions:
REMARK  status: ('A' for Active; 'I' for Inactive)
REMARK    1  A    between atoms: N_3  and  C_12
REMARK    2  A    between atoms: N_6  and  C_26
REMARK    3  A    between atoms: N_7  and  C_29
REMARK    4  A    between atoms: N_9  and  C_28
REMARK    5  A    between atoms: C_13  and  C_17
REMARK    6  A    between atoms: C_27  and  C_33
REMARK                            x       y       z     vdW  Elec       q    Type
REMARK                         _______ _______ _______ _____ _____    ______ ____
ROOT
ATOM      1  F   UNL     1       5.652   1.552   0.592  0.00  0.00    +0.000 F 
ATOM      2  N   UNL     1       3.646  -0.345   0.662  0.00  0.00    +0.000 N 
ATOM      3  N   UNL     1       2.034   1.373   0.326  0.00  0.00    +0.000 NA
ATOM      4  N   UNL     1       2.749   3.664   0.107  0.00  0.00    +0.000 NA
ATOM      5  N   UNL     1       0.475   3.095  -0.004  0.00  0.00    +0.000 N 
ATOM      6  C   UNL     1       3.336   0.992   0.476  0.00  0.00    +0.000 A 
ATOM      7  C   UNL     1       4.375   1.921   0.446  0.00  0.00    +0.000 A 
ATOM      8  C   UNL     1       1.819   2.690   0.150  0.00  0.00    +0.000 A 
ATOM      9  C   UNL     1       4.021   3.242   0.259  0.00  0.00    +0.000 A 
ATOM     10  H   UNL     1       4.616  -0.611   0.528  0.00  0.00    +0.000 HD
ATOM     11  H   UNL     1       0.391   4.072  -0.266  0.00  0.00    +0.000 HD
ENDROOT
BRANCH   2  14
ATOM     12  C   UNL     1       3.249  -2.676   1.360  0.00  0.00    +0.000 C 
ATOM     13  C   UNL     1       2.636  -3.400  -0.667  0.00  0.00    +0.000 C 
ATOM     14  C   UNL     1       2.657  -1.398   0.711  0.00  0.00    +0.000 C 
ATOM     15  C   UNL     1       2.225  -1.905  -0.703  0.00  0.00    +0.000 C 
ATOM     16  C   UNL     1       3.924  -3.357   0.164  0.00  0.00    +0.000 C 
ATOM     17  C   UNL     1       2.112  -3.655   1.558  0.00  0.00    +0.000 C 
ATOM     18  C   UNL     1       1.746  -4.090   0.343  0.00  0.00    +0.000 C 
BRANCH  15  21
ATOM     19  O   UNL     1       3.950  -1.545  -2.320  0.00  0.00    +0.000 OA
ATOM     20  N   UNL     1       2.144  -0.119  -2.318  0.00  0.00    +0.000 N 
ATOM     21  C   UNL     1       2.868  -1.193  -1.857  0.00  0.00    +0.000 C 
ATOM     22  H   UNL     1       1.259   0.159  -1.907  0.00  0.00    +0.000 HD
ATOM     23  H   UNL     1       2.482   0.444  -3.091  0.00  0.00    +0.000 HD
ENDBRANCH  15  21
ENDBRANCH   2  14
BRANCH   5  26
ATOM     24  C   UNL     1      -3.148   0.970  -0.032  0.00  0.00    +0.000 A 
ATOM     25  C   UNL     1      -2.070   0.501   0.719  0.00  0.00    +0.000 A 
ATOM     26  C   UNL     1      -0.739   2.383  -0.013  0.00  0.00    +0.000 A 
ATOM     27  C   UNL     1      -3.023   2.145  -0.773  0.00  0.00    +0.000 A 
ATOM     28  C   UNL     1      -0.867   1.206   0.728  0.00  0.00    +0.000 A 
ATOM     29  C   UNL     1      -1.819   2.851  -0.763  0.00  0.00    +0.000 A 
ATOM     30  C   UNL     1      -2.177  -0.755   1.522  0.00  0.00    +0.000 C 
BRANCH  24  31
ATOM     31  N   UNL     1      -4.362   0.274  -0.053  0.00  0.00    +0.000 N 
ATOM     32  N   UNL     1      -6.921  -0.975  -0.276  0.00  0.00    +0.000 NA
ATOM     33  C   UNL     1      -4.586  -0.766  -1.062  0.00  0.00    +0.000 C 
ATOM     34  C   UNL     1      -5.565   0.971   0.419  0.00  0.00    +0.000 C 
ATOM     35  C   UNL     1      -5.700  -1.716  -0.616  0.00  0.00    +0.000 C 
ATOM     36  C   UNL     1      -6.647  -0.035   0.818  0.00  0.00    +0.000 C 
ATOM     37  C   UNL     1      -7.994  -1.897   0.097  0.00  0.00    +0.000 C 
ENDBRANCH  24  31
ENDBRANCH   5  26
TORSDOF 4
