REMARK  Name = 60152109
REMARK  14 active torsions:
REMARK  status: ('A' for Active; 'I' for Inactive)
REMARK    1  A    between atoms: O_4  and  C_49
REMARK    2  A    between atoms: N_6  and  C_14
REMARK    3  A    between atoms: N_6  and  C_35
REMARK    4  A    between atoms: N_7  and  C_39
REMARK    5  A    between atoms: C_8  and  C_24
REMARK    6  A    between atoms: C_9  and  C_25
REMARK    7  A    between atoms: C_13  and  C_29
REMARK    8  A    between atoms: C_21  and  C_31
REMARK    9  A    between atoms: C_26  and  C_33
REMARK   10  A    between atoms: C_26  and  C_34
REMARK   11  A    between atoms: C_30  and  C_36
REMARK   12  A    between atoms: C_31  and  C_37
REMARK   13  A    between atoms: C_35  and  C_39
REMARK   14  A    between atoms: C_46  and  C_49
REMARK                            x       y       z     vdW  Elec       q    Type
REMARK                         _______ _______ _______ _____ _____    ______ ____
ROOT
ATOM      1  C   UNL     1       1.113  -0.854   1.063  0.00  0.00    +0.000 C 
ATOM      2  C   UNL     1      -0.116   0.040   0.476  0.00  0.00    +0.000 C 
ATOM      3  C   UNL     1       1.650  -1.796  -0.094  0.00  0.00    +0.000 C 
ATOM      4  C   UNL     1      -1.238  -0.932  -0.069  0.00  0.00    +0.000 C 
ATOM      5  C   UNL     1       2.908  -2.573   0.358  0.00  0.00    +0.000 C 
ATOM      6  C   UNL     1      -2.641  -0.281  -0.443  0.00  0.00    +0.000 C 
ATOM      7  C   UNL     1       4.042  -1.606   0.772  0.00  0.00    +0.000 C 
ATOM      8  C   UNL     1       2.289   0.032   1.614  0.00  0.00    +0.000 C 
ATOM      9  C   UNL     1       0.539  -2.693  -0.654  0.00  0.00    +0.000 C 
ATOM     10  C   UNL     1      -3.120   0.605   0.764  0.00  0.00    +0.000 C 
ATOM     11  C   UNL     1      -0.675  -1.895  -1.138  0.00  0.00    +0.000 C 
ATOM     12  C   UNL     1      -0.735   0.945   1.576  0.00  0.00    +0.000 C 
ATOM     13  C   UNL     1       3.582  -0.745   1.950  0.00  0.00    +0.000 C 
ATOM     14  C   UNL     1       3.612  -3.542  -0.614  0.00  0.00    +0.000 C 
ATOM     15  C   UNL     1      -2.042   1.631   1.169  0.00  0.00    +0.000 C 
ATOM     16  C   UNL     1       5.158  -2.607   1.080  0.00  0.00    +0.000 C 
ATOM     17  C   UNL     1       0.643  -1.716   2.285  0.00  0.00    +0.000 C 
ATOM     18  C   UNL     1       0.409   0.986  -0.645  0.00  0.00    +0.000 C 
ATOM     19  C   UNL     1      -4.584   1.208   0.631  0.00  0.00    +0.000 C 
ATOM     20  C   UNL     1       5.046  -3.661  -0.038  0.00  0.00    +0.000 C 
ATOM     21  C   UNL     1      -3.688  -1.430  -0.600  0.00  0.00    +0.000 C 
ATOM     22  C   UNL     1      -2.612   0.487  -1.785  0.00  0.00    +0.000 C 
ATOM     23  C   UNL     1      -5.525   0.192  -0.037  0.00  0.00    +0.000 C 
ATOM     24  C   UNL     1      -5.115  -0.980  -0.553  0.00  0.00    +0.000 C 
ATOM     25  C   UNL     1      -4.622   2.547  -0.138  0.00  0.00    +0.000 C 
ATOM     26  C   UNL     1      -5.112   1.492   2.065  0.00  0.00    +0.000 C 
ENDROOT
BRANCH  23  27
ATOM     27  C   UNL     1      -6.954   0.480  -0.116  0.00  0.00    +0.000 A 
ATOM     28  C   UNL     1      -7.802   0.087   0.920  0.00  0.00    +0.000 A 
ATOM     29  C   UNL     1      -7.471   1.149  -1.225  0.00  0.00    +0.000 A 
ATOM     30  C   UNL     1      -9.167   0.363   0.845  0.00  0.00    +0.000 A 
ATOM     31  C   UNL     1      -8.836   1.424  -1.300  0.00  0.00    +0.000 A 
ATOM     32  C   UNL     1      -9.684   1.031  -0.264  0.00  0.00    +0.000 A 
BRANCH  32  34
ATOM     33  O   UNL     1     -11.946   1.023   0.517  0.00  0.00    +0.000 OA
ATOM     34  C   UNL     1     -11.107   1.321  -0.340  0.00  0.00    +0.000 C 
BRANCH  34  35
ATOM     35  O   UNL     1     -11.445   1.977  -1.484  0.00  0.00    +0.000 OA
ATOM     36  H   UNL     1     -12.406   2.168  -1.526  0.00  0.00    +0.000 HD
ENDBRANCH  34  35
ENDBRANCH  32  34
ENDBRANCH  23  27
BRANCH  14  37
ATOM     37  C   UNL     1       2.968  -4.885  -0.737  0.00  0.00    +0.000 C 
ATOM     38  C   UNL     1       2.554  -5.296  -2.119  0.00  0.00    +0.000 C 
ATOM     39  C   UNL     1       2.770  -5.677   0.327  0.00  0.00    +0.000 C 
ENDBRANCH  14  37
BRANCH   7  40
ATOM     40  N   UNL     1       4.513  -0.754  -0.334  0.00  0.00    +0.000 NA
ATOM     41  H   UNL     1       4.983  -1.307  -1.047  0.00  0.00    +0.000 HD
BRANCH  40  42
ATOM     42  C   UNL     1       5.395   0.282   0.168  0.00  0.00    +0.000 C 
BRANCH  42  43
ATOM     43  C   UNL     1       6.227   0.862  -0.972  0.00  0.00    +0.000 C 
BRANCH  43  47
ATOM     44  S   UNL     1       9.743   3.595  -0.229  0.00  0.00    +0.000 S 
ATOM     45  O   UNL     1      10.184   4.740   0.543  0.00  0.00    +0.000 OA
ATOM     46  O   UNL     1      10.629   2.946  -1.175  0.00  0.00    +0.000 OA
ATOM     47  N   UNL     1       7.106   1.921  -0.468  0.00  0.00    +0.000 NA
ATOM     48  C   UNL     1       8.281   1.325   0.191  0.00  0.00    +0.000 C 
ATOM     49  C   UNL     1       7.492   2.818  -1.571  0.00  0.00    +0.000 C 
ATOM     50  C   UNL     1       8.248   4.046  -1.078  0.00  0.00    +0.000 C 
ATOM     51  C   UNL     1       9.134   2.369   0.902  0.00  0.00    +0.000 C 
ENDBRANCH  43  47
ENDBRANCH  42  43
ENDBRANCH  40  42
ENDBRANCH   7  40
TORSDOF 8
